XFLR5 v6.09.05 beta

 Calculated polar for: -10s1223

 1 1 Reynolds number fixed          Mach number fixed         

 xtrf =   1.000 (top)        1.000 (bottom)
 Mach =   0.000     Re =     0.340 e 6     Ncrit =   9.000

  alpha     CL        CD       CDp       Cm    Top Xtr Bot Xtr   Cpmin    Chinge    XCp    
 ------- -------- --------- --------- -------- ------- ------- -------- --------- ---------
   0.000   0.5055   0.02560   0.01959  -0.1680  0.4648  0.0362  -1.3076   0.0000   0.5788
   1.000   0.6957   0.01581   0.00786  -0.1855  0.4422  0.0268  -1.3288   0.0000   0.5120
   2.000   0.8292   0.01467   0.00633  -0.1896  0.4212  0.0396  -1.2891   0.0000   0.4727
   3.000   0.9679   0.01378   0.00582  -0.1946  0.4109  0.2740  -1.4283   0.0000   0.4437
   4.000   1.0874   0.01412   0.00636  -0.1957  0.3984  0.3916  -1.5606   0.0000   0.4211
   6.000   1.2870   0.01539   0.00855  -0.1887  0.3792  0.9260  -1.8020   0.0000   0.3847
   7.000   1.3742   0.01579   0.00900  -0.1828  0.3706  0.9737  -1.9315   0.0000   0.3695
   8.000   1.4859   0.01672   0.00992  -0.1829  0.3607  1.0000  -2.1058   0.0000   0.3579
   9.000   1.5970   0.01854   0.01178  -0.1835  0.3484  1.0000  -2.3047   0.0000   0.3480
  10.000   1.7045   0.01933   0.01289  -0.1832  0.3389  1.0000  -2.5533   0.0000   0.3386
  11.000   1.8091   0.02014   0.01372  -0.1825  0.3253  1.0000  -2.9125   0.0000   0.3300
  12.000   1.9078   0.02119   0.01500  -0.1810  0.3097  1.0000  -3.2759   0.0000   0.3219
  13.000   2.0002   0.02200   0.01602  -0.1783  0.2916  1.0000  -3.6434   0.0000   0.3140
  14.000   2.0847   0.02330   0.01770  -0.1746  0.2728  1.0000  -4.0549   0.0000   0.3063
  15.000   2.1398   0.02535   0.01997  -0.1659  0.2426  1.0000  -4.4159   0.0000   0.2978
  16.000   2.1346   0.03144   0.02595  -0.1507  0.1883  1.0000  -4.6421   0.0000   0.2886
  17.000   2.0666   0.04856   0.04332  -0.1444  0.1546  1.0000  -4.6775   0.0000   0.2854
  18.000   1.9716   0.07342   0.06864  -0.1460  0.1353  1.0000  -4.6054   0.0000   0.2870
  19.000   1.8809   0.09995   0.09556  -0.1514  0.1180  1.0000  -4.5128   0.0000   0.2909
  20.000   1.8213   0.12342   0.11927  -0.1589  0.1002  1.0000  -4.4830   0.0000   0.2951
  21.000   1.7842   0.14347   0.13953  -0.1671  0.0861  1.0000  -4.5277   0.0000   0.2989
  22.000   1.7696   0.15891   0.15510  -0.1752  0.0741  1.0000  -4.6807   0.0000   0.3015
  23.000   1.7667   0.17339   0.16992  -0.1830  0.0663  1.0000  -5.1487   0.0000   0.3031
  24.000   1.7539   0.19098   0.18769  -0.1926  0.0584  1.0000  -5.6153   0.0000   0.3064
  25.000   1.7519   0.20703   0.20404  -0.2012  0.0519  1.0000  -6.1874   0.0000   0.3083


