XFLR5 v6.09.05 beta

 Calculated polar for: -10s1223

 1 1 Reynolds number fixed          Mach number fixed         

 xtrf =   1.000 (top)        1.000 (bottom)
 Mach =   0.000     Re =     0.115 e 6     Ncrit =   9.000

  alpha     CL        CD       CDp       Cm    Top Xtr Bot Xtr   Cpmin    Chinge    XCp    
 ------- -------- --------- --------- -------- ------- ------- -------- --------- ---------
   0.000   0.4429   0.04461   0.03836  -0.1477  0.5614  0.1431  -0.9870   0.0000   0.5807
   1.000   0.6752   0.02436   0.01536  -0.1841  0.5352  0.0684  -1.1165   0.0000   0.5185
   2.000   0.8067   0.02231   0.01286  -0.1871  0.5119  0.0765  -1.2307   0.0000   0.4765
   3.000   0.9362   0.02296   0.01413  -0.1900  0.4937  0.4443  -1.3546   0.0000   0.4461
   4.000   1.0442   0.02410   0.01564  -0.1892  0.4790  0.5608  -1.4576   0.0000   0.4231
   5.000   1.1027   0.02470   0.01678  -0.1764  0.4653  1.0000  -1.5397   0.0000   0.4004
   6.000   1.2083   0.02862   0.02040  -0.1762  0.4530  1.0000  -1.6599   0.0000   0.3848
   7.000   1.3016   0.03206   0.02410  -0.1744  0.4392  1.0000  -1.7809   0.0000   0.3715
   8.000   1.3986   0.03549   0.02766  -0.1730  0.4263  1.0000  -1.9351   0.0000   0.3596
   9.000   1.4677   0.04196   0.03450  -0.1692  0.4117  1.0000  -2.0652   0.0000   0.3496
  10.000   1.5342   0.04709   0.03996  -0.1649  0.3942  1.0000  -2.2253   0.0000   0.3401
  12.000   1.4524   0.07779   0.07159  -0.1484  0.3529  1.0000  -2.2601   0.0000   0.3315
  15.000   1.3119   0.14320   0.13789  -0.1634  0.2610  1.0000  -2.1449   0.0000   0.3492
  16.000   1.3088   0.15920   0.15410  -0.1691  0.2341  1.0000  -2.1715   0.0000   0.3521
  17.000   1.3210   0.17203   0.16713  -0.1745  0.2082  1.0000  -2.2291   0.0000   0.3529
  18.000   1.3345   0.18537   0.18066  -0.1806  0.1836  1.0000  -2.3046   0.0000   0.3540
  21.000   1.3677   0.23751   0.23353  -0.2018  0.1316  1.0000  -2.3623   0.0000   0.3598
  22.000   1.3014   0.29230   0.28856  -0.2230  0.1557  1.0000  -1.7747   0.0000   0.3843
  23.000   1.2866   0.31895   0.31537  -0.2322  0.1467  1.0000  -1.6720   0.0000   0.3916


