XFLR5 v6.09.05 beta

 Calculated polar for: -10s1223

 1 1 Reynolds number fixed          Mach number fixed         

 xtrf =   1.000 (top)        1.000 (bottom)
 Mach =   0.000     Re =     0.310 e 6     Ncrit =   9.000

  alpha     CL        CD       CDp       Cm    Top Xtr Bot Xtr   Cpmin    Chinge    XCp    
 ------- -------- --------- --------- -------- ------- ------- -------- --------- ---------
   0.000   0.4974   0.02750   0.02154  -0.1652  0.4718  0.0410  -1.2411   0.0000   0.5787
   1.000   0.6925   0.01660   0.00851  -0.1848  0.4477  0.0279  -1.3090   0.0000   0.5122
   2.000   0.8255   0.01501   0.00661  -0.1888  0.4297  0.0419  -1.2855   0.0000   0.4727
   3.000   0.9664   0.01435   0.00629  -0.1944  0.4152  0.2897  -1.4242   0.0000   0.4438
   4.000   1.0852   0.01472   0.00684  -0.1953  0.4035  0.3996  -1.5549   0.0000   0.4211
   5.000   1.1973   0.01499   0.00795  -0.1946  0.3924  0.8579  -1.6818   0.0000   0.4022
   6.000   1.2758   0.01614   0.00913  -0.1862  0.3825  0.9412  -1.7887   0.0000   0.3841
   7.000   1.3703   0.01658   0.00966  -0.1821  0.3751  1.0000  -1.9240   0.0000   0.3695
   8.000   1.4837   0.01762   0.01074  -0.1826  0.3651  1.0000  -2.0995   0.0000   0.3580
   9.000   1.5940   0.01973   0.01280  -0.1832  0.3506  1.0000  -2.2977   0.0000   0.3480
  10.000   1.7006   0.02048   0.01391  -0.1827  0.3425  1.0000  -2.5430   0.0000   0.3386
  11.000   1.8049   0.02120   0.01474  -0.1819  0.3294  1.0000  -2.9008   0.0000   0.3300
  12.000   1.9029   0.02249   0.01618  -0.1803  0.3134  1.0000  -3.2623   0.0000   0.3219
  13.000   1.9948   0.02298   0.01697  -0.1775  0.2957  1.0000  -3.6292   0.0000   0.3138
  14.000   2.0760   0.02442   0.01876  -0.1732  0.2770  1.0000  -4.0308   0.0000   0.3060
  15.000   2.1304   0.02638   0.02100  -0.1643  0.2516  1.0000  -4.3885   0.0000   0.2975
  16.000   2.1332   0.03166   0.02627  -0.1501  0.2050  1.0000  -4.6332   0.0000   0.2884
  17.000   2.0779   0.04684   0.04173  -0.1432  0.1679  1.0000  -4.7047   0.0000   0.2845
  18.000   1.9794   0.07176   0.06706  -0.1446  0.1463  1.0000  -4.6246   0.0000   0.2860
  19.000   1.8802   0.09931   0.09496  -0.1502  0.1272  1.0000  -4.5067   0.0000   0.2903
  20.000   1.8175   0.12319   0.11902  -0.1579  0.1063  1.0000  -4.4670   0.0000   0.2948
  21.000   1.7754   0.14405   0.14001  -0.1667  0.0887  1.0000  -4.4928   0.0000   0.2992
  22.000   1.7697   0.15800   0.15423  -0.1740  0.0782  1.0000  -4.6805   0.0000   0.3008
  23.000   1.7601   0.17370   0.17013  -0.1825  0.0688  1.0000  -5.0783   0.0000   0.3032
  24.000   1.7534   0.19008   0.18686  -0.1914  0.0617  1.0000  -5.5987   0.0000   0.3057
  25.000   1.7481   0.20677   0.20371  -0.2004  0.0540  1.0000  -6.1382   0.0000   0.3081


