XFLR5 v6.09.05 beta

 Calculated polar for: -10s1223

 1 1 Reynolds number fixed          Mach number fixed         

 xtrf =   1.000 (top)        1.000 (bottom)
 Mach =   0.000     Re =     0.005 e 6     Ncrit =   9.000

  alpha     CL        CD       CDp       Cm    Top Xtr Bot Xtr   Cpmin    Chinge    XCp    
 ------- -------- --------- --------- -------- ------- ------- -------- --------- ---------
   0.000   0.0303   0.09388   0.07862  -0.0206  1.0000  1.0000  -0.9804   0.0000   0.9653
   1.000   0.0001   0.09329   0.07864  -0.0159  1.0000  1.0000  -1.0160   0.0000  213.2002
   2.000  -0.0283   0.09158   0.07748  -0.0119  1.0000  1.0000  -1.0766   0.0000  -0.1930
   3.000  -0.0572   0.08869   0.07511  -0.0082  1.0000  1.0000  -1.1489   0.0000   0.0981
   4.000  -0.0881   0.08431   0.07125  -0.0046  1.0000  1.0000  -1.2269   0.0000   0.1933
   5.000  -0.0929   0.07884   0.06603  -0.0088  1.0000  1.0000  -1.3138   0.0000   0.1519
   6.000   0.2954   0.09303   0.07173  -0.1071  1.0000  1.0000  -1.2478   0.0000   0.6046
   7.000   0.3800   0.10204   0.07744  -0.1154  1.0000  1.0000  -0.9684   0.0000   0.5444
   8.000   0.4490   0.11123   0.08439  -0.1207  1.0000  1.0000  -0.7164   0.0000   0.5083
   9.000   0.5113   0.12083   0.09256  -0.1253  1.0000  1.0000  -0.7503   0.0000   0.4832
  10.000   0.5691   0.13093   0.10170  -0.1297  1.0000  1.0000  -0.7893   0.0000   0.4646
  11.000   0.6235   0.14154   0.11173  -0.1342  1.0000  1.0000  -0.8258   0.0000   0.4505
  12.000   0.6750   0.15269   0.12262  -0.1389  1.0000  1.0000  -0.8660   0.0000   0.4395
  13.000   0.7237   0.16438   0.13420  -0.1438  1.0000  1.0000  -0.9109   0.0000   0.4310
  14.000   0.7698   0.17674   0.14669  -0.1491  1.0000  1.0000  -0.9557   0.0000   0.4244
  15.000   0.8136   0.18977   0.16005  -0.1549  1.0000  1.0000  -1.0032   0.0000   0.4194
  16.000   0.8552   0.20351   0.17454  -0.1610  1.0000  1.0000  -1.0586   0.0000   0.4155
  17.000   0.8945   0.21799   0.18955  -0.1675  1.0000  1.0000  -1.1043   0.0000   0.4127
  18.000   0.9319   0.23328   0.20547  -0.1744  1.0000  1.0000  -1.1586   0.0000   0.4107
  19.000   0.9674   0.24937   0.22228  -0.1816  1.0000  1.0000  -1.1967   0.0000   0.4093
  20.000   1.0012   0.26616   0.23983  -0.1890  1.0000  1.0000  -1.2203   0.0000   0.4084
  21.000   1.0333   0.28392   0.25909  -0.1967  1.0000  1.0000  -1.2572   0.0000   0.4077
  22.000   1.0632   0.30264   0.27866  -0.2044  1.0000  1.0000  -1.2779   0.0000   0.4074
  23.000   1.0912   0.32234   0.29923  -0.2122  1.0000  1.0000  -1.2935   0.0000   0.4073
  24.000   1.1171   0.34293   0.32073  -0.2200  1.0000  1.0000  -1.3212   0.0000   0.4072
  25.000   1.1406   0.36441   0.34313  -0.2276  1.0000  1.0000  -1.3426   0.0000   0.4072


