XFLR5 v6.09.05 beta

 Calculated polar for: -10s1223

 1 1 Reynolds number fixed          Mach number fixed         

 xtrf =   1.000 (top)        1.000 (bottom)
 Mach =   0.000     Re =     0.205 e 6     Ncrit =   9.000

  alpha     CL        CD       CDp       Cm    Top Xtr Bot Xtr   Cpmin    Chinge    XCp    
 ------- -------- --------- --------- -------- ------- ------- -------- --------- ---------
   0.000   0.4796   0.03266   0.02651  -0.1608  0.5036  0.0692  -1.0331   0.0000   0.5817
   1.000   0.6875   0.01886   0.01027  -0.1844  0.4790  0.0377  -1.2434   0.0000   0.5139
   2.000   0.8211   0.01747   0.00841  -0.1884  0.4569  0.0517  -1.2695   0.0000   0.4735
   3.000   0.9564   0.01698   0.00856  -0.1927  0.4436  0.3419  -1.4016   0.0000   0.4443
   4.000   1.0747   0.01753   0.00918  -0.1935  0.4294  0.4535  -1.5285   0.0000   0.4214
   5.000   1.1495   0.01832   0.01087  -0.1840  0.4173  0.9280  -1.6201   0.0000   0.4000
   6.000   1.2448   0.01920   0.01176  -0.1800  0.4089  1.0000  -1.7416   0.0000   0.3830
   7.000   1.3577   0.02061   0.01308  -0.1804  0.3974  1.0000  -1.8919   0.0000   0.3697
   8.000   1.4667   0.02352   0.01600  -0.1808  0.3843  1.0000  -2.0605   0.0000   0.3584
   9.000   1.5707   0.02496   0.01771  -0.1799  0.3749  1.0000  -2.2500   0.0000   0.3479
  10.000   1.6754   0.02613   0.01913  -0.1791  0.3613  1.0000  -2.4868   0.0000   0.3384
  11.000   1.7728   0.02885   0.02203  -0.1778  0.3476  1.0000  -2.8173   0.0000   0.3299
  12.000   1.8654   0.02958   0.02310  -0.1751  0.3320  1.0000  -3.1653   0.0000   0.3213
  13.000   1.9567   0.03043   0.02415  -0.1723  0.3134  1.0000  -3.5278   0.0000   0.3133
  14.000   2.0331   0.03078   0.02480  -0.1668  0.2937  1.0000  -3.9078   0.0000   0.3050
  15.000   2.0755   0.03295   0.02745  -0.1565  0.2728  1.0000  -4.2321   0.0000   0.2960
  16.000   2.0895   0.03688   0.03180  -0.1440  0.2480  1.0000  -4.4951   0.0000   0.2872
  17.000   2.0536   0.04857   0.04387  -0.1371  0.2182  1.0000  -4.6151   0.0000   0.2825
  18.000   1.9670   0.07080   0.06642  -0.1382  0.1893  1.0000  -4.5665   0.0000   0.2834
  19.000   1.8752   0.09646   0.09232  -0.1435  0.1629  1.0000  -4.4668   0.0000   0.2871
  20.000   1.8206   0.11838   0.11439  -0.1505  0.1386  1.0000  -4.4491   0.0000   0.2906
  21.000   1.7840   0.13778   0.13397  -0.1587  0.1179  1.0000  -4.4942   0.0000   0.2943
  22.000   1.7618   0.15445   0.15080  -0.1677  0.1005  1.0000  -4.6160   0.0000   0.2977
  23.000   1.7486   0.17092   0.16737  -0.1769  0.0855  1.0000  -4.9618   0.0000   0.3009
  24.000   1.7304   0.19014   0.18692  -0.1877  0.0751  1.0000  -5.3192   0.0000   0.3053
  25.000   1.7069   0.21182   0.20904  -0.1992  0.0680  1.0000  -5.6467   0.0000   0.3107


