XFLR5 v6.09.05 beta

 Calculated polar for: -10s1223

 1 1 Reynolds number fixed          Mach number fixed         

 xtrf =   1.000 (top)        1.000 (bottom)
 Mach =   0.000     Re =     0.035 e 6     Ncrit =   9.000

  alpha     CL        CD       CDp       Cm    Top Xtr Bot Xtr   Cpmin    Chinge    XCp    
 ------- -------- --------- --------- -------- ------- ------- -------- --------- ---------
   0.000   0.1043   0.08229   0.07685  -0.0629  0.7816  0.4334  -0.7222   0.0000   0.8609
   1.000   0.0215   0.08606   0.08102  -0.0439  0.7566  0.4764  -0.7501   0.0000   2.3399
   7.000   0.6265   0.10115   0.09273  -0.1756  0.8576  1.0000  -0.7763   0.0000   0.5223
   9.000   0.7965   0.12684   0.11695  -0.1828  0.7394  1.0000  -0.9173   0.0000   0.4686
  10.000   0.8159   0.13496   0.12496  -0.1797  0.6951  1.0000  -0.9328   0.0000   0.4578
  11.000   0.8698   0.14649   0.13634  -0.1807  0.6465  1.0000  -0.9893   0.0000   0.4438
  12.000   0.9338   0.16130   0.15111  -0.1831  0.6047  1.0000  -1.0651   0.0000   0.4306
  13.000   0.9853   0.17631   0.16619  -0.1852  0.5668  1.0000  -1.1394   0.0000   0.4209
  14.000   1.0485   0.19663   0.18679  -0.1883  0.5281  1.0000  -1.2470   0.0000   0.4108
  15.000   1.0796   0.20995   0.20031  -0.1899  0.4917  1.0000  -1.3179   0.0000   0.4054
  17.000   1.1204   0.22910   0.21991  -0.1954  0.4218  1.0000  -1.3939   0.0000   0.4003
  18.000   1.1276   0.23741   0.22844  -0.2010  0.3934  1.0000  -1.3733   0.0000   0.4023
  19.000   1.1489   0.25274   0.24433  -0.2064  0.3652  1.0000  -1.3942   0.0000   0.4017
  20.000   1.1788   0.27418   0.26606  -0.2110  0.3459  1.0000  -1.4179   0.0000   0.3990
  22.000   1.2058   0.30743   0.29989  -0.2221  0.3014  1.0000  -1.4072   0.0000   0.3998
  23.000   1.2289   0.33305   0.32585  -0.2248  0.2843  1.0000  -1.4524   0.0000   0.3962
  24.000   1.2211   0.34776   0.34118  -0.2277  0.2624  1.0000  -1.4463   0.0000   0.3974


