XFLR5 v6.09.05 beta

 Calculated polar for: -10s1223

 1 1 Reynolds number fixed          Mach number fixed         

 xtrf =   1.000 (top)        1.000 (bottom)
 Mach =   0.000     Re =     0.220 e 6     Ncrit =   9.000

  alpha     CL        CD       CDp       Cm    Top Xtr Bot Xtr   Cpmin    Chinge    XCp    
 ------- -------- --------- --------- -------- ------- ------- -------- --------- ---------
   0.000   0.4862   0.03489   0.02857  -0.1596  0.4960  0.0642  -1.0337   0.0000   0.5749
   1.000   0.6889   0.01819   0.00966  -0.1846  0.4732  0.0357  -1.2649   0.0000   0.5135
   2.000   0.8221   0.01710   0.00815  -0.1885  0.4521  0.0491  -1.2720   0.0000   0.4734
   3.000   0.9580   0.01636   0.00801  -0.1929  0.4384  0.3333  -1.4062   0.0000   0.4441
   4.000   1.0771   0.01714   0.00878  -0.1940  0.4235  0.4439  -1.5341   0.0000   0.4214
   5.000   1.1609   0.01763   0.01030  -0.1865  0.4137  0.9144  -1.6334   0.0000   0.4005
   6.000   1.2470   0.01832   0.01098  -0.1803  0.4042  1.0000  -1.7485   0.0000   0.3829
   7.000   1.3614   0.01965   0.01215  -0.1809  0.3931  1.0000  -1.9009   0.0000   0.3696
   8.000   1.4703   0.02228   0.01490  -0.1812  0.3818  1.0000  -2.0684   0.0000   0.3583
   9.000   1.5759   0.02363   0.01647  -0.1805  0.3709  1.0000  -2.2607   0.0000   0.3479
  10.000   1.6834   0.02470   0.01766  -0.1802  0.3578  1.0000  -2.5034   0.0000   0.3385
  11.000   1.7793   0.02723   0.02051  -0.1786  0.3447  1.0000  -2.8342   0.0000   0.3299
  12.000   1.8763   0.02780   0.02129  -0.1765  0.3289  1.0000  -3.1921   0.0000   0.3215
  13.000   1.9638   0.02878   0.02258  -0.1731  0.3101  1.0000  -3.5476   0.0000   0.3133
  14.000   2.0437   0.02937   0.02334  -0.1683  0.2904  1.0000  -3.9377   0.0000   0.3052
  15.000   2.0877   0.03140   0.02591  -0.1580  0.2693  1.0000  -4.2667   0.0000   0.2963
  16.000   2.1029   0.03540   0.03032  -0.1456  0.2430  1.0000  -4.5338   0.0000   0.2874
  17.000   2.0663   0.04720   0.04245  -0.1382  0.2122  1.0000  -4.6540   0.0000   0.2826
  18.000   1.9778   0.06970   0.06523  -0.1391  0.1837  1.0000  -4.6020   0.0000   0.2834
  19.000   1.8842   0.09557   0.09134  -0.1442  0.1581  1.0000  -4.4999   0.0000   0.2870
  20.000   1.8255   0.11817   0.11406  -0.1514  0.1333  1.0000  -4.4736   0.0000   0.2908
  21.000   1.7856   0.13832   0.13436  -0.1600  0.1124  1.0000  -4.5112   0.0000   0.2949
  22.000   1.7601   0.15585   0.15212  -0.1695  0.0955  1.0000  -4.6199   0.0000   0.2989
  23.000   1.7444   0.17299   0.16949  -0.1790  0.0819  1.0000  -4.9339   0.0000   0.3024
  24.000   1.7468   0.18685   0.18344  -0.1865  0.0708  1.0000  -5.4846   0.0000   0.3034
  25.000   1.7169   0.21030   0.20751  -0.1992  0.0657  1.0000  -5.7626   0.0000   0.3098


