XFLR5 v6.09.05 beta

 Calculated polar for: -10s1223

 1 1 Reynolds number fixed          Mach number fixed         

 xtrf =   1.000 (top)        1.000 (bottom)
 Mach =   0.000     Re =     0.350 e 6     Ncrit =   9.000

  alpha     CL        CD       CDp       Cm    Top Xtr Bot Xtr   Cpmin    Chinge    XCp    
 ------- -------- --------- --------- -------- ------- ------- -------- --------- ---------
   1.000   0.6967   0.01560   0.00768  -0.1857  0.4404  0.0264  -1.3341   0.0000   0.5119
   2.000   0.8307   0.01459   0.00628  -0.1900  0.4186  0.0389  -1.2902   0.0000   0.4727
   3.000   0.9688   0.01359   0.00569  -0.1948  0.4094  0.2718  -1.4298   0.0000   0.4437
   4.000   1.0880   0.01397   0.00623  -0.1958  0.3967  0.3888  -1.5622   0.0000   0.4211
   6.000   1.2915   0.01521   0.00840  -0.1897  0.3780  0.9215  -1.8068   0.0000   0.3850
   7.000   1.3792   0.01563   0.00886  -0.1839  0.3691  0.9649  -1.9371   0.0000   0.3698
   8.000   1.4866   0.01650   0.00973  -0.1830  0.3591  1.0000  -2.1074   0.0000   0.3579
   9.000   1.5978   0.01819   0.01148  -0.1836  0.3476  1.0000  -2.3067   0.0000   0.3479
  10.000   1.7057   0.01900   0.01258  -0.1833  0.3377  1.0000  -2.5564   0.0000   0.3387
  11.000   1.8103   0.01992   0.01351  -0.1827  0.3236  1.0000  -2.9155   0.0000   0.3301
  12.000   1.9094   0.02082   0.01467  -0.1812  0.3085  1.0000  -3.2801   0.0000   0.3219
  13.000   2.0016   0.02178   0.01580  -0.1786  0.2900  1.0000  -3.6475   0.0000   0.3140
  14.000   2.0873   0.02297   0.01739  -0.1750  0.2714  1.0000  -4.0620   0.0000   0.3064
  15.000   2.1410   0.02511   0.01969  -0.1661  0.2388  1.0000  -4.4206   0.0000   0.2979
  16.000   2.1316   0.03162   0.02607  -0.1505  0.1831  1.0000  -4.6363   0.0000   0.2886
  17.000   2.0667   0.04866   0.04340  -0.1447  0.1505  1.0000  -4.6788   0.0000   0.2855
  18.000   1.9663   0.07437   0.06957  -0.1466  0.1324  1.0000  -4.5906   0.0000   0.2875
  19.000   1.8790   0.10048   0.09606  -0.1519  0.1153  1.0000  -4.5076   0.0000   0.2912
  20.000   1.8219   0.12356   0.11941  -0.1592  0.0987  1.0000  -4.4859   0.0000   0.2952
  21.000   1.7867   0.14331   0.13938  -0.1673  0.0850  1.0000  -4.5378   0.0000   0.2989
  22.000   1.7695   0.15917   0.15535  -0.1756  0.0727  1.0000  -4.6803   0.0000   0.3017
  23.000   1.7684   0.17336   0.16989  -0.1831  0.0654  1.0000  -5.1665   0.0000   0.3031
  24.000   1.7542   0.19118   0.18787  -0.1929  0.0572  1.0000  -5.6218   0.0000   0.3065
  25.000   1.7532   0.20707   0.20409  -0.2014  0.0512  1.0000  -6.2035   0.0000   0.3083


