XFLR5 v6.09.05 beta

 Calculated polar for: -10s1223

 1 1 Reynolds number fixed          Mach number fixed         

 xtrf =   1.000 (top)        1.000 (bottom)
 Mach =   0.000     Re =     0.285 e 6     Ncrit =   9.000

  alpha     CL        CD       CDp       Cm    Top Xtr Bot Xtr   Cpmin    Chinge    XCp    
 ------- -------- --------- --------- -------- ------- ------- -------- --------- ---------
   0.000   0.4948   0.03142   0.02529  -0.1620  0.4775  0.0451  -1.1708   0.0000   0.5738
   2.000   0.8233   0.01552   0.00704  -0.1884  0.4356  0.0435  -1.2817   0.0000   0.4728
   3.000   0.9650   0.01500   0.00681  -0.1942  0.4182  0.3020  -1.4201   0.0000   0.4439
   4.000   1.0834   0.01531   0.00733  -0.1950  0.4084  0.4093  -1.5498   0.0000   0.4212
   5.000   1.1889   0.01546   0.00840  -0.1926  0.3977  0.8707  -1.6710   0.0000   0.4017
   6.000   1.2614   0.01635   0.00921  -0.1830  0.3869  0.9584  -1.7749   0.0000   0.3832
   7.000   1.3685   0.01747   0.01039  -0.1819  0.3789  1.0000  -1.9185   0.0000   0.3696
   8.000   1.4809   0.01858   0.01163  -0.1823  0.3692  1.0000  -2.0927   0.0000   0.3580
   9.000   1.5915   0.01973   0.01271  -0.1825  0.3576  1.0000  -2.2941   0.0000   0.3478
  10.000   1.6969   0.02163   0.01493  -0.1822  0.3457  1.0000  -2.5331   0.0000   0.3387
  11.000   1.7998   0.02244   0.01594  -0.1812  0.3329  1.0000  -2.8872   0.0000   0.3299
  12.000   1.8987   0.02388   0.01743  -0.1798  0.3161  1.0000  -3.2497   0.0000   0.3219
  13.000   1.9886   0.02411   0.01808  -0.1765  0.2990  1.0000  -3.6127   0.0000   0.3137
  14.000   2.0679   0.02555   0.01979  -0.1719  0.2805  1.0000  -4.0080   0.0000   0.3058
  15.000   2.1187   0.02747   0.02198  -0.1624  0.2558  1.0000  -4.3571   0.0000   0.2970
  16.000   2.1352   0.03183   0.02661  -0.1500  0.2187  1.0000  -4.6318   0.0000   0.2883
  17.000   2.0774   0.04658   0.04153  -0.1421  0.1807  1.0000  -4.6994   0.0000   0.2840
  18.000   1.9795   0.07117   0.06651  -0.1434  0.1566  1.0000  -4.6214   0.0000   0.2854
  19.000   1.8845   0.09793   0.09361  -0.1487  0.1354  1.0000  -4.5167   0.0000   0.2894
  20.000   1.8191   0.12217   0.11803  -0.1566  0.1133  1.0000  -4.4680   0.0000   0.2940
  21.000   1.7796   0.14254   0.13855  -0.1652  0.0943  1.0000  -4.5076   0.0000   0.2981
  22.000   1.7667   0.15769   0.15393  -0.1731  0.0816  1.0000  -4.6651   0.0000   0.3005
  23.000   1.7556   0.17354   0.16987  -0.1817  0.0705  1.0000  -5.0306   0.0000   0.3031
  24.000   1.7516   0.18949   0.18630  -0.1904  0.0644  1.0000  -5.5693   0.0000   0.3053
  25.000   1.7436   0.20683   0.20374  -0.1998  0.0559  1.0000  -6.0817   0.0000   0.3081


