XFLR5 v6.09.05 beta

 Calculated polar for: -10s1223

 1 1 Reynolds number fixed          Mach number fixed         

 xtrf =   1.000 (top)        1.000 (bottom)
 Mach =   0.000     Re =     0.245 e 6     Ncrit =   9.000

  alpha     CL        CD       CDp       Cm    Top Xtr Bot Xtr   Cpmin    Chinge    XCp    
 ------- -------- --------- --------- -------- ------- ------- -------- --------- ---------
   0.000   0.4825   0.03108   0.02506  -0.1612  0.4878  0.0533  -1.0877   0.0000   0.5807
   1.000   0.6911   0.01738   0.00887  -0.1848  0.4645  0.0328  -1.3014   0.0000   0.5129
   2.000   0.8206   0.01656   0.00784  -0.1879  0.4457  0.0459  -1.2751   0.0000   0.4730
   3.000   0.9595   0.01559   0.00726  -0.1930  0.4308  0.3167  -1.4125   0.0000   0.4438
   4.000   1.0806   0.01655   0.00837  -0.1947  0.4163  0.4305  -1.5404   0.0000   0.4214
   5.000   1.1738   0.01666   0.00948  -0.1893  0.4070  0.8944  -1.6499   0.0000   0.4010
   6.000   1.2501   0.01709   0.00986  -0.1806  0.3976  1.0000  -1.7587   0.0000   0.3827
   7.000   1.3645   0.01945   0.01206  -0.1816  0.3840  1.0000  -1.9067   0.0000   0.3698
   8.000   1.4751   0.02057   0.01339  -0.1817  0.3769  1.0000  -2.0793   0.0000   0.3582
   9.000   1.5836   0.02177   0.01469  -0.1815  0.3652  1.0000  -2.2765   0.0000   0.3478
  10.000   1.6888   0.02421   0.01725  -0.1813  0.3500  1.0000  -2.5141   0.0000   0.3387
  11.000   1.7883   0.02507   0.01848  -0.1797  0.3397  1.0000  -2.8573   0.0000   0.3299
  12.000   1.8887   0.02564   0.01909  -0.1782  0.3242  1.0000  -3.2236   0.0000   0.3216
  13.000   1.9749   0.02659   0.02048  -0.1746  0.3050  1.0000  -3.5770   0.0000   0.3134
  14.000   2.0548   0.02783   0.02184  -0.1700  0.2855  1.0000  -3.9696   0.0000   0.3055
  15.000   2.1030   0.02942   0.02388  -0.1601  0.2639  1.0000  -4.3113   0.0000   0.2966
  16.000   2.1184   0.03361   0.02844  -0.1475  0.2352  1.0000  -4.5803   0.0000   0.2877
  17.000   2.0739   0.04646   0.04156  -0.1398  0.2014  1.0000  -4.6815   0.0000   0.2830
  18.000   1.9850   0.06934   0.06480  -0.1406  0.1737  1.0000  -4.6290   0.0000   0.2839
  19.000   1.8901   0.09558   0.09132  -0.1458  0.1494  1.0000  -4.5248   0.0000   0.2876
  20.000   1.8249   0.11953   0.11546  -0.1535  0.1259  1.0000  -4.4780   0.0000   0.2920
  21.000   1.7841   0.13995   0.13600  -0.1622  0.1049  1.0000  -4.5151   0.0000   0.2962
  22.000   1.7607   0.15688   0.15300  -0.1713  0.0876  1.0000  -4.6335   0.0000   0.2998
  23.000   1.7478   0.17365   0.17010  -0.1805  0.0772  1.0000  -4.9592   0.0000   0.3030
  24.000   1.7477   0.18834   0.18505  -0.1884  0.0687  1.0000  -5.5105   0.0000   0.3044
  25.000   1.7304   0.20841   0.20555  -0.1993  0.0620  1.0000  -5.9214   0.0000   0.3088


