XFLR5 v6.09.05 beta

 Calculated polar for: -10s1223

 1 1 Reynolds number fixed          Mach number fixed         

 xtrf =   1.000 (top)        1.000 (bottom)
 Mach =   0.000     Re =     0.130 e 6     Ncrit =   9.000

  alpha     CL        CD       CDp       Cm    Top Xtr Bot Xtr   Cpmin    Chinge    XCp    
 ------- -------- --------- --------- -------- ------- ------- -------- --------- ---------
   0.000   0.4418   0.04236   0.03629  -0.1474  0.5477  0.1181  -0.9899   0.0000   0.5806
   1.000   0.6784   0.02320   0.01427  -0.1840  0.5220  0.0578  -1.1290   0.0000   0.5171
   2.000   0.8110   0.02089   0.01141  -0.1873  0.4989  0.0692  -1.2426   0.0000   0.4753
   3.000   0.9408   0.02147   0.01282  -0.1906  0.4822  0.4204  -1.3646   0.0000   0.4457
   4.000   1.0539   0.02215   0.01364  -0.1904  0.4666  0.5347  -1.4788   0.0000   0.4224
   5.000   1.1118   0.02343   0.01549  -0.1775  0.4535  1.0000  -1.5589   0.0000   0.3999
   6.000   1.2180   0.02584   0.01790  -0.1770  0.4426  1.0000  -1.6790   0.0000   0.3842
   7.000   1.3234   0.02824   0.02024  -0.1765  0.4291  1.0000  -1.8198   0.0000   0.3706
   8.000   1.4204   0.03270   0.02483  -0.1754  0.4169  1.0000  -1.9735   0.0000   0.3592
   9.000   1.5030   0.03649   0.02907  -0.1722  0.4024  1.0000  -2.1257   0.0000   0.3487
  10.000   1.6057   0.03853   0.03106  -0.1712  0.3883  1.0000  -2.3501   0.0000   0.3388
  11.000   1.6479   0.04563   0.03905  -0.1640  0.3707  1.0000  -2.5386   0.0000   0.3300
  12.000   1.7537   0.04587   0.03931  -0.1627  0.3554  1.0000  -2.9024   0.0000   0.3210
  13.000   1.4700   0.08627   0.08079  -0.1485  0.3214  1.0000  -2.4225   0.0000   0.3281
  14.000   1.8968   0.04969   0.04378  -0.1525  0.3165  1.0000  -3.5375   0.0000   0.3041
  18.000   1.5343   0.13979   0.13549  -0.1571  0.2028  1.0000  -3.1529   0.0000   0.3178
  19.000   1.3951   0.18738   0.18328  -0.1819  0.1593  1.0000  -2.6052   0.0000   0.3458
  20.000   1.5101   0.17394   0.17007  -0.1736  0.1531  1.0000  -3.1923   0.0000   0.3260


