XFLR5 v6.09.05 beta

 Calculated polar for: -10s1223

 1 1 Reynolds number fixed          Mach number fixed         

 xtrf =   1.000 (top)        1.000 (bottom)
 Mach =   0.000     Re =     0.010 e 6     Ncrit =   9.000

  alpha     CL        CD       CDp       Cm    Top Xtr Bot Xtr   Cpmin    Chinge    XCp    
 ------- -------- --------- --------- -------- ------- ------- -------- --------- ---------
   0.000  -0.1433   0.10051   0.09114   0.0181  1.0000  0.8855  -0.9622   0.0000   0.3657
   1.000  -0.2409   0.10166   0.09286   0.0326  1.0000  0.7948  -1.0505   0.0000   0.3782
   2.000  -0.3353   0.10019   0.09185   0.0432  1.0000  0.7148  -1.1528   0.0000   0.3734
   3.000  -0.3264   0.09491   0.08654   0.0261  1.0000  0.6357  -1.2060   0.0000   0.3244
   4.000  -0.1690   0.08753   0.07847  -0.0175  1.0000  0.5736  -1.1324   0.0000   0.1404
   5.000   0.0499   0.08460   0.07442  -0.0642  1.0000  0.6135  -1.0390   0.0000   1.5312
   6.000   0.3294   0.08678   0.07410  -0.1207  1.0000  1.0000  -1.2387   0.0000   0.6094
   7.000   0.4273   0.09735   0.08120  -0.1321  1.0000  1.0000  -0.9772   0.0000   0.5504
   8.000   0.4948   0.10739   0.08947  -0.1370  1.0000  1.0000  -0.7162   0.0000   0.5168
   9.000   0.5554   0.11786   0.09887  -0.1413  1.0000  1.0000  -0.7511   0.0000   0.4930
  10.000   0.6117   0.12888   0.10920  -0.1456  1.0000  1.0000  -0.7872   0.0000   0.4751
  11.000   0.6648   0.14045   0.12038  -0.1501  1.0000  1.0000  -0.8262   0.0000   0.4613
  12.000   0.7151   0.15253   0.13230  -0.1548  1.0000  1.0000  -0.8646   0.0000   0.4505
  13.000   0.7627   0.16517   0.14490  -0.1599  1.0000  1.0000  -0.9069   0.0000   0.4421
  14.000   0.8080   0.17841   0.15828  -0.1654  1.0000  1.0000  -0.9543   0.0000   0.4355
  15.000   0.8511   0.19230   0.17244  -0.1713  1.0000  1.0000  -1.0041   0.0000   0.4304
  16.000   0.8921   0.20689   0.18759  -0.1776  1.0000  1.0000  -1.0539   0.0000   0.4265
  17.000   0.9312   0.22223   0.20332  -0.1844  1.0000  1.0000  -1.1084   0.0000   0.4235
  18.000   0.9847   0.23708   0.21878  -0.1957  0.9586  1.0000  -1.1664   0.0000   0.4223
  19.000   1.0361   0.25262   0.23490  -0.2050  0.8705  1.0000  -1.2063   0.0000   0.4196
  20.000   1.0860   0.27767   0.26106  -0.2132  0.7972  1.0000  -1.2652   0.0000   0.4162
  21.000   1.1140   0.29421   0.27818  -0.2174  0.7342  1.0000  -1.2861   0.0000   0.4130
  22.000   1.1338   0.30991   0.29449  -0.2210  0.6853  1.0000  -1.2875   0.0000   0.4108
  23.000   1.1714   0.34218   0.32740  -0.2269  0.6356  1.0000  -1.3392   0.0000   0.4074
  24.000   1.1838   0.36144   0.34729  -0.2300  0.5993  1.0000  -1.3493   0.0000   0.4058
  25.000   1.1773   0.37579   0.36274  -0.2302  0.5604  1.0000  -1.3477   0.0000   0.4048


