XFLR5 v6.09.05 beta

 Calculated polar for: -15s1223

 1 1 Reynolds number fixed          Mach number fixed         

 xtrf =   1.000 (top)        1.000 (bottom)
 Mach =   0.000     Re =     0.150 e 6     Ncrit =   9.000

  alpha     CL        CD       CDp       Cm    Top Xtr Bot Xtr   Cpmin    Chinge    XCp    
 ------- -------- --------- --------- -------- ------- ------- -------- --------- ---------
   0.000   0.1934   0.05227   0.04667  -0.1059  0.5375  0.0676  -1.1160   0.0000   0.7935
   1.000   0.3047   0.04137   0.03539  -0.1192  0.5154  0.0928  -0.9700   0.0000   0.6350
   2.000   0.4826   0.02375   0.01506  -0.1381  0.4954  0.0414  -1.3898   0.0000   0.5295
   3.000   0.6062   0.02126   0.01219  -0.1400  0.4782  0.0614  -1.1249   0.0000   0.4731
   4.000   0.7303   0.01983   0.01046  -0.1409  0.4635  0.0830  -1.2403   0.0000   0.4341
   5.000   0.8419   0.02058   0.01251  -0.1409  0.4497  0.5000  -1.3480   0.0000   0.4073
   6.000   0.8713   0.02120   0.01400  -0.1199  0.4394  0.9299  -1.4059   0.0000   0.3762
   7.000   0.9492   0.02197   0.01459  -0.1119  0.4289  1.0000  -1.5058   0.0000   0.3551
   8.000   1.0509   0.02513   0.01766  -0.1112  0.4170  1.0000  -1.6326   0.0000   0.3417
   9.000   1.1484   0.02808   0.02086  -0.1104  0.4047  1.0000  -1.7694   0.0000   0.3306
  10.000   1.2557   0.02983   0.02264  -0.1106  0.3920  1.0000  -1.9494   0.0000   0.3209
  11.000   1.3389   0.03465   0.02782  -0.1093  0.3774  1.0000  -2.1148   0.0000   0.3128
  12.000   1.4351   0.03673   0.03010  -0.1087  0.3616  1.0000  -2.3479   0.0000   0.3051
  13.000   1.5197   0.04045   0.03426  -0.1075  0.3465  1.0000  -2.6488   0.0000   0.2981
  14.000   1.6105   0.04126   0.03536  -0.1061  0.3282  1.0000  -2.9813   0.0000   0.2911
  15.000   1.6718   0.04431   0.03891  -0.1025  0.3088  1.0000  -3.2637   0.0000   0.2843
  16.000   1.8124   0.03942   0.03387  -0.1039  0.2869  1.0000  -3.7847   0.0000   0.2776
  17.000   1.8235   0.04391   0.03889  -0.0969  0.2643  1.0000  -4.0125   0.0000   0.2710
  18.000   1.6924   0.07082   0.06640  -0.1038  0.2378  1.0000  -3.8121   0.0000   0.2770
  19.000   1.6713   0.08586   0.08158  -0.1079  0.2093  1.0000  -3.9030   0.0000   0.2778
  20.000   1.7115   0.09192   0.08756  -0.1086  0.1785  1.0000  -4.1771   0.0000   0.2738
  21.000   1.6577   0.11409   0.10998  -0.1173  0.1533  1.0000  -4.1235   0.0000   0.2788
  22.000   1.6192   0.13483   0.13102  -0.1272  0.1335  1.0000  -4.1188   0.0000   0.2843
  23.000   1.2203   0.26288   0.25947  -0.1891  0.1251  1.0000  -1.8242   0.0000   0.3683
  24.000   1.2603   0.27394   0.27070  -0.1923  0.1080  1.0000  -2.0703   0.0000   0.3627
  25.000   1.2388   0.30884   0.30580  -0.2067  0.1151  1.0000  -1.7965   0.0000   0.3763


