XFLR5 v6.09.05 beta

 Calculated polar for: -15s1223

 1 1 Reynolds number fixed          Mach number fixed         

 xtrf =   1.000 (top)        1.000 (bottom)
 Mach =   0.000     Re =     0.220 e 6     Ncrit =   9.000

  alpha     CL        CD       CDp       Cm    Top Xtr Bot Xtr   Cpmin    Chinge    XCp    
 ------- -------- --------- --------- -------- ------- ------- -------- --------- ---------
   0.000   0.2105   0.04987   0.04443  -0.1088  0.5039  0.0444  -1.2701   0.0000   0.7620
   1.000   0.3192   0.03529   0.02938  -0.1233  0.4835  0.0556  -1.1455   0.0000   0.6298
   2.000   0.4877   0.02080   0.01245  -0.1377  0.4638  0.0291  -1.4612   0.0000   0.5254
   3.000   0.6146   0.01809   0.00930  -0.1404  0.4481  0.0456  -1.1485   0.0000   0.4704
   4.000   0.7403   0.01658   0.00761  -0.1421  0.4347  0.0548  -1.2695   0.0000   0.4327
   5.000   0.8649   0.01690   0.00887  -0.1448  0.4194  0.4381  -1.3928   0.0000   0.4070
   6.000   0.9409   0.01748   0.01042  -0.1346  0.4118  0.8800  -1.4855   0.0000   0.3813
   7.000   0.9976   0.01797   0.01096  -0.1208  0.4029  0.9397  -1.5748   0.0000   0.3579
   8.000   1.0786   0.01843   0.01126  -0.1135  0.3930  0.9705  -1.6936   0.0000   0.3407
   9.000   1.1794   0.02056   0.01351  -0.1121  0.3825  1.0000  -1.8371   0.0000   0.3290
  10.000   1.2874   0.02190   0.01509  -0.1123  0.3713  1.0000  -2.0185   0.0000   0.3196
  11.000   1.4000   0.02284   0.01596  -0.1133  0.3588  1.0000  -2.2378   0.0000   0.3115
  12.000   1.5001   0.02538   0.01894  -0.1132  0.3460  1.0000  -2.5031   0.0000   0.3042
  13.000   1.6073   0.02583   0.01958  -0.1136  0.3306  1.0000  -2.8606   0.0000   0.2973
  14.000   1.7079   0.02710   0.02103  -0.1135  0.3139  1.0000  -3.2205   0.0000   0.2909
  15.000   1.8105   0.02663   0.02076  -0.1132  0.2926  1.0000  -3.6178   0.0000   0.2847
  16.000   1.8907   0.02810   0.02274  -0.1106  0.2702  1.0000  -4.0111   0.0000   0.2783
  17.000   1.9394   0.03094   0.02596  -0.1045  0.2423  1.0000  -4.3421   0.0000   0.2713
  18.000   1.9186   0.04219   0.03752  -0.1024  0.2108  1.0000  -4.4822   0.0000   0.2683
  19.000   1.8357   0.06353   0.05908  -0.1061  0.1829  1.0000  -4.4258   0.0000   0.2702
  20.000   1.7640   0.08571   0.08141  -0.1116  0.1567  1.0000  -4.3728   0.0000   0.2733
  21.000   1.7169   0.10622   0.10206  -0.1184  0.1332  1.0000  -4.3697   0.0000   0.2766
  22.000   1.6807   0.12650   0.12257  -0.1274  0.1141  1.0000  -4.4080   0.0000   0.2809
  23.000   1.6558   0.14535   0.14171  -0.1375  0.0979  1.0000  -4.5045   0.0000   0.2856
  24.000   1.6421   0.16181   0.15839  -0.1482  0.0841  1.0000  -4.7624   0.0000   0.2902
  25.000   1.6485   0.17530   0.17197  -0.1573  0.0722  1.0000  -5.2789   0.0000   0.2923


