XFLR5 v6.09.05 beta

 Calculated polar for: -15s1223

 1 1 Reynolds number fixed          Mach number fixed         

 xtrf =   1.000 (top)        1.000 (bottom)
 Mach =   0.000     Re =     0.065 e 6     Ncrit =   9.000

  alpha     CL        CD       CDp       Cm    Top Xtr Bot Xtr   Cpmin    Chinge    XCp    
 ------- -------- --------- --------- -------- ------- ------- -------- --------- ---------
   0.000   0.1714   0.07174   0.06600  -0.0990  0.6320  0.2032  -0.8284   0.0000   0.8276
   1.000   0.2320   0.06255   0.05695  -0.0992  0.6094  0.2432  -0.8200   0.0000   0.6747
   2.000   0.3118   0.05538   0.04979  -0.1040  0.5907  0.2888  -0.8730   0.0000   0.5786
   3.000   0.5532   0.03749   0.02841  -0.1416  0.5700  0.1069  -0.9973   0.0000   0.4999
   4.000   0.6355   0.03950   0.03043  -0.1385  0.5558  0.1444  -1.0424   0.0000   0.4610
   5.000   0.6865   0.04253   0.03586  -0.1308  0.5391  0.6980  -1.0842   0.0000   0.4326
   6.000   0.7427   0.04719   0.03967  -0.1202  0.5292  1.0000  -1.1457   0.0000   0.4026
   7.000   0.7504   0.06243   0.05493  -0.1261  0.5231  1.0000  -1.0954   0.0000   0.4083
   9.000   0.7110   0.09454   0.08717  -0.1374  0.5722  1.0000  -0.9504   0.0000   0.4323
  10.000   0.7560   0.10414   0.09659  -0.1368  0.5372  1.0000  -0.9918   0.0000   0.4187
  11.000   0.7889   0.11467   0.10701  -0.1370  0.5057  1.0000  -1.0230   0.0000   0.4102
  12.000   0.8280   0.12572   0.11803  -0.1379  0.4731  1.0000  -1.0702   0.0000   0.4016
  13.000   0.9354   0.14529   0.13757  -0.1410  0.4544  1.0000  -1.2260   0.0000   0.3840
  14.000   0.9983   0.15802   0.15052  -0.1417  0.4207  1.0000  -1.3472   0.0000   0.3735
  15.000   0.9941   0.16539   0.15803  -0.1430  0.3878  1.0000  -1.3574   0.0000   0.3740
  16.000   0.9804   0.17440   0.16721  -0.1477  0.3595  1.0000  -1.3343   0.0000   0.3795
  17.000   1.0002   0.18702   0.18001  -0.1533  0.3332  1.0000  -1.3599   0.0000   0.3805
  18.000   1.0343   0.20165   0.19482  -0.1586  0.3128  1.0000  -1.3975   0.0000   0.3789
  19.000   1.1212   0.23023   0.22390  -0.1595  0.2883  1.0000  -1.5985   0.0000   0.3654
  20.000   1.1181   0.23188   0.22572  -0.1675  0.2615  1.0000  -1.5524   0.0000   0.3712
  21.000   1.1133   0.24620   0.24021  -0.1791  0.2462  1.0000  -1.4342   0.0000   0.3809
  22.000   1.1803   0.27590   0.27019  -0.1797  0.2307  1.0000  -1.6107   0.0000   0.3696
  23.000   1.1644   0.28106   0.27550  -0.1921  0.2112  1.0000  -1.4952   0.0000   0.3806
  24.000   1.2029   0.31008   0.30496  -0.1950  0.2034  1.0000  -1.6073   0.0000   0.3754
  25.000   1.2016   0.32057   0.31568  -0.2034  0.1821  1.0000  -1.5883   0.0000   0.3803


