XFLR5 v6.09.05 beta

 Calculated polar for: -15s1223

 1 1 Reynolds number fixed          Mach number fixed         

 xtrf =   1.000 (top)        1.000 (bottom)
 Mach =   0.000     Re =     0.255 e 6     Ncrit =   9.000

  alpha     CL        CD       CDp       Cm    Top Xtr Bot Xtr   Cpmin    Chinge    XCp    
 ------- -------- --------- --------- -------- ------- ------- -------- --------- ---------
   0.000   0.1893   0.04810   0.04286  -0.1040  0.4909  0.0344  -1.2640   0.0000   0.7943
   1.000   0.3331   0.03081   0.02472  -0.1282  0.4732  0.0487  -1.3336   0.0000   0.6285
   2.000   0.4918   0.01918   0.01097  -0.1387  0.4525  0.0264  -1.5082   0.0000   0.5251
   3.000   0.6178   0.01656   0.00800  -0.1408  0.4381  0.0404  -1.1557   0.0000   0.4698
   4.000   0.7433   0.01584   0.00693  -0.1426  0.4232  0.0475  -1.2783   0.0000   0.4326
   5.000   0.8698   0.01546   0.00763  -0.1455  0.4124  0.4169  -1.4046   0.0000   0.4068
   6.000   0.9593   0.01599   0.00906  -0.1386  0.4024  0.8624  -1.5077   0.0000   0.3827
   7.000   1.0283   0.01672   0.00972  -0.1274  0.3936  0.9191  -1.6097   0.0000   0.3606
   8.000   1.1089   0.01807   0.01108  -0.1203  0.3833  0.9468  -1.7246   0.0000   0.3438
   9.000   1.2022   0.01881   0.01196  -0.1164  0.3750  0.9633  -1.8673   0.0000   0.3307
  10.000   1.2968   0.01929   0.01254  -0.1130  0.3641  1.0000  -2.0402   0.0000   0.3193
  11.000   1.4047   0.02146   0.01475  -0.1137  0.3506  1.0000  -2.2501   0.0000   0.3114
  12.000   1.5118   0.02240   0.01611  -0.1141  0.3395  1.0000  -2.5336   0.0000   0.3040
  13.000   1.6228   0.02288   0.01657  -0.1151  0.3244  1.0000  -2.9007   0.0000   0.2974
  14.000   1.7229   0.02382   0.01787  -0.1148  0.3073  1.0000  -3.2615   0.0000   0.2910
  15.000   1.8228   0.02442   0.01865  -0.1145  0.2868  1.0000  -3.6551   0.0000   0.2849
  16.000   1.9090   0.02546   0.02002  -0.1126  0.2633  1.0000  -4.0657   0.0000   0.2787
  17.000   1.9577   0.02865   0.02352  -0.1064  0.2321  1.0000  -4.3987   0.0000   0.2717
  18.000   1.9395   0.03991   0.03521  -0.1039  0.1992  1.0000  -4.5473   0.0000   0.2684
  19.000   1.8530   0.06177   0.05738  -0.1073  0.1729  1.0000  -4.4831   0.0000   0.2703
  20.000   1.7703   0.08579   0.08163  -0.1134  0.1487  1.0000  -4.3996   0.0000   0.2741
  21.000   1.7131   0.10799   0.10400  -0.1209  0.1256  1.0000  -4.3657   0.0000   0.2782
  22.000   1.6770   0.12822   0.12435  -0.1297  0.1051  1.0000  -4.4103   0.0000   0.2825
  23.000   1.6561   0.14627   0.14249  -0.1392  0.0880  1.0000  -4.5258   0.0000   0.2866
  24.000   1.6460   0.16221   0.15866  -0.1495  0.0768  1.0000  -4.7998   0.0000   0.2907
  25.000   1.6457   0.17726   0.17409  -0.1593  0.0691  1.0000  -5.2823   0.0000   0.2938


