XFLR5 v6.09.05 beta

 Calculated polar for: -15s1223

 1 1 Reynolds number fixed          Mach number fixed         

 xtrf =   1.000 (top)        1.000 (bottom)
 Mach =   0.000     Re =     0.195 e 6     Ncrit =   9.000

  alpha     CL        CD       CDp       Cm    Top Xtr Bot Xtr   Cpmin    Chinge    XCp    
 ------- -------- --------- --------- -------- ------- ------- -------- --------- ---------
   0.000   0.1942   0.04905   0.04364  -0.1066  0.5146  0.0484  -1.2339   0.0000   0.7944
   1.000   0.3241   0.03549   0.02925  -0.1257  0.4911  0.0682  -1.1509   0.0000   0.6314
   2.000   0.4890   0.02048   0.01195  -0.1387  0.4735  0.0326  -1.4905   0.0000   0.5268
   3.000   0.6134   0.01880   0.00982  -0.1407  0.4549  0.0519  -1.1427   0.0000   0.4714
   4.000   0.7372   0.01769   0.00859  -0.1417  0.4434  0.0605  -1.2601   0.0000   0.4332
   5.000   0.8596   0.01735   0.00929  -0.1437  0.4294  0.4558  -1.3838   0.0000   0.4068
   6.000   0.9216   0.01883   0.01160  -0.1304  0.4186  0.8933  -1.4639   0.0000   0.3798
   7.000   0.9705   0.01913   0.01202  -0.1151  0.4113  0.9584  -1.5444   0.0000   0.3556
   8.000   1.0668   0.01993   0.01278  -0.1117  0.4000  1.0000  -1.6725   0.0000   0.3403
   9.000   1.1774   0.02182   0.01452  -0.1122  0.3889  1.0000  -1.8293   0.0000   0.3293
  10.000   1.2788   0.02434   0.01740  -0.1118  0.3777  1.0000  -1.9992   0.0000   0.3199
  11.000   1.3854   0.02570   0.01889  -0.1120  0.3643  1.0000  -2.2077   0.0000   0.3116
  12.000   1.4886   0.02834   0.02174  -0.1124  0.3504  1.0000  -2.4734   0.0000   0.3043
  13.000   1.5868   0.02942   0.02323  -0.1118  0.3354  1.0000  -2.8096   0.0000   0.2973
  14.000   1.6949   0.03025   0.02403  -0.1125  0.3183  1.0000  -3.1844   0.0000   0.2910
  15.000   1.7914   0.02956   0.02379  -0.1113  0.2974  1.0000  -3.5628   0.0000   0.2844
  16.000   1.8695   0.03102   0.02565  -0.1084  0.2755  1.0000  -3.9498   0.0000   0.2780
  17.000   1.9145   0.03372   0.02868  -0.1021  0.2498  1.0000  -4.2700   0.0000   0.2709
  18.000   1.8935   0.04517   0.04061  -0.1012  0.2204  1.0000  -4.4042   0.0000   0.2685
  19.000   1.8123   0.06650   0.06220  -0.1055  0.1920  1.0000  -4.3478   0.0000   0.2708
  20.000   1.7379   0.08932   0.08520  -0.1117  0.1648  1.0000  -4.2808   0.0000   0.2745
  21.000   1.6929   0.10985   0.10590  -0.1189  0.1410  1.0000  -4.2725   0.0000   0.2780
  22.000   1.6667   0.12814   0.12442  -0.1268  0.1220  1.0000  -4.3326   0.0000   0.2813
  23.000   1.6517   0.14470   0.14116  -0.1355  0.1061  1.0000  -4.4592   0.0000   0.2847
  24.000   1.6533   0.15805   0.15452  -0.1446  0.0898  1.0000  -4.8303   0.0000   0.2873


