XFLR5 v6.09.05 beta

 Calculated polar for: -15s1223

 1 1 Reynolds number fixed          Mach number fixed         

 xtrf =   1.000 (top)        1.000 (bottom)
 Mach =   0.000     Re =     0.165 e 6     Ncrit =   9.000

  alpha     CL        CD       CDp       Cm    Top Xtr Bot Xtr   Cpmin    Chinge    XCp    
 ------- -------- --------- --------- -------- ------- ------- -------- --------- ---------
   0.000   0.2125   0.05336   0.04759  -0.1097  0.5271  0.0634  -1.1511   0.0000   0.7617
   1.000   0.3213   0.03833   0.03206  -0.1250  0.5067  0.0886  -1.0775   0.0000   0.6329
   2.000   0.4849   0.02265   0.01408  -0.1385  0.4873  0.0382  -1.4090   0.0000   0.5290
   3.000   0.6088   0.02005   0.01105  -0.1401  0.4698  0.0584  -1.1326   0.0000   0.4723
   4.000   0.7330   0.01947   0.01010  -0.1413  0.4547  0.0726  -1.2471   0.0000   0.4339
   5.000   0.8484   0.01928   0.01130  -0.1418  0.4420  0.4833  -1.3607   0.0000   0.4070
   6.000   0.8942   0.01991   0.01265  -0.1244  0.4317  0.9168  -1.4331   0.0000   0.3775
   7.000   0.9531   0.02111   0.01372  -0.1120  0.4210  1.0000  -1.5184   0.0000   0.3547
   8.000   1.0568   0.02308   0.01579  -0.1113  0.4108  1.0000  -1.6470   0.0000   0.3411
   9.000   1.1611   0.02523   0.01801  -0.1110  0.3988  1.0000  -1.7952   0.0000   0.3299
  10.000   1.2645   0.02861   0.02138  -0.1111  0.3853  1.0000  -1.9686   0.0000   0.3206
  11.000   1.3587   0.03098   0.02418  -0.1103  0.3724  1.0000  -2.1535   0.0000   0.3122
  12.000   1.4679   0.03187   0.02508  -0.1108  0.3585  1.0000  -2.4224   0.0000   0.3045
  13.000   1.5498   0.03573   0.02955  -0.1092  0.3425  1.0000  -2.7196   0.0000   0.2976
  14.000   1.6630   0.03493   0.02879  -0.1097  0.3257  1.0000  -3.1039   0.0000   0.2909
  15.000   1.7378   0.03681   0.03125  -0.1068  0.3046  1.0000  -3.4209   0.0000   0.2841
  16.000   1.8324   0.03613   0.03070  -0.1052  0.2830  1.0000  -3.8439   0.0000   0.2776
  17.000   1.8859   0.03769   0.03243  -0.0997  0.2582  1.0000  -4.1839   0.0000   0.2706
  18.000   1.8654   0.04855   0.04376  -0.0990  0.2305  1.0000  -4.3168   0.0000   0.2683
  19.000   1.7857   0.06960   0.06516  -0.1037  0.2024  1.0000  -4.2588   0.0000   0.2708
  20.000   1.7079   0.09302   0.08884  -0.1107  0.1746  1.0000  -4.1723   0.0000   0.2752
  21.000   1.6611   0.11417   0.11020  -0.1188  0.1493  1.0000  -4.1443   0.0000   0.2795
  22.000   1.6448   0.13071   0.12691  -0.1260  0.1291  1.0000  -4.2301   0.0000   0.2821
  23.000   1.5682   0.15914   0.15586  -0.1423  0.1150  1.0000  -4.0375   0.0000   0.2944
  24.000   1.2299   0.28619   0.28313  -0.1994  0.1173  1.0000  -1.7958   0.0000   0.3736
  25.000   1.2781   0.30000   0.29717  -0.1993  0.1111  1.0000  -2.0945   0.0000   0.3639


