XFLR5 v6.09.05 beta

 Calculated polar for: -15s1223

 1 1 Reynolds number fixed          Mach number fixed         

 xtrf =   1.000 (top)        1.000 (bottom)
 Mach =   0.000     Re =     0.250 e 6     Ncrit =   9.000

  alpha     CL        CD       CDp       Cm    Top Xtr Bot Xtr   Cpmin    Chinge    XCp    
 ------- -------- --------- --------- -------- ------- ------- -------- --------- ---------
   0.000   0.1886   0.04859   0.04332  -0.1034  0.4917  0.0353  -1.2397   0.0000   0.7932
   1.000   0.3306   0.03143   0.02540  -0.1274  0.4746  0.0493  -1.3026   0.0000   0.6291
   2.000   0.4914   0.01942   0.01118  -0.1387  0.4535  0.0268  -1.5021   0.0000   0.5252
   3.000   0.6174   0.01676   0.00818  -0.1408  0.4394  0.0412  -1.1548   0.0000   0.4699
   4.000   0.7428   0.01584   0.00691  -0.1425  0.4252  0.0485  -1.2776   0.0000   0.4325
   5.000   0.8693   0.01563   0.00778  -0.1455  0.4135  0.4201  -1.4032   0.0000   0.4069
   6.000   0.9564   0.01617   0.00924  -0.1380  0.4037  0.8645  -1.5044   0.0000   0.3824
   7.000   1.0233   0.01681   0.00980  -0.1263  0.3949  0.9217  -1.6046   0.0000   0.3601
   8.000   1.1035   0.01826   0.01123  -0.1192  0.3840  0.9498  -1.7188   0.0000   0.3433
   9.000   1.1981   0.01901   0.01214  -0.1156  0.3761  0.9663  -1.8623   0.0000   0.3303
  10.000   1.2957   0.01960   0.01286  -0.1129  0.3650  1.0000  -2.0376   0.0000   0.3194
  11.000   1.4035   0.02185   0.01510  -0.1136  0.3511  1.0000  -2.2474   0.0000   0.3114
  12.000   1.5102   0.02277   0.01647  -0.1139  0.3404  1.0000  -2.5296   0.0000   0.3040
  13.000   1.6213   0.02315   0.01684  -0.1149  0.3254  1.0000  -2.8968   0.0000   0.2974
  14.000   1.7209   0.02423   0.01826  -0.1146  0.3082  1.0000  -3.2563   0.0000   0.2910
  15.000   1.8214   0.02474   0.01893  -0.1144  0.2873  1.0000  -3.6507   0.0000   0.2849
  16.000   1.9071   0.02575   0.02032  -0.1124  0.2644  1.0000  -4.0599   0.0000   0.2786
  17.000   1.9562   0.02887   0.02376  -0.1062  0.2336  1.0000  -4.3935   0.0000   0.2716
  18.000   1.9364   0.04022   0.03551  -0.1036  0.2010  1.0000  -4.5378   0.0000   0.2684
  19.000   1.8513   0.06189   0.05749  -0.1071  0.1745  1.0000  -4.4772   0.0000   0.2703
  20.000   1.7703   0.08564   0.08146  -0.1131  0.1499  1.0000  -4.3984   0.0000   0.2739
  21.000   1.7136   0.10776   0.10375  -0.1206  0.1268  1.0000  -4.3657   0.0000   0.2780
  22.000   1.6781   0.12786   0.12397  -0.1294  0.1062  1.0000  -4.4124   0.0000   0.2822
  23.000   1.6572   0.14589   0.14208  -0.1389  0.0888  1.0000  -4.5289   0.0000   0.2863
  24.000   1.6453   0.16223   0.15870  -0.1494  0.0777  1.0000  -4.7945   0.0000   0.2907
  25.000   1.6454   0.17717   0.17399  -0.1591  0.0696  1.0000  -5.2755   0.0000   0.2937


