XFLR5 v6.09.05 beta

 Calculated polar for: -15s1223

 1 1 Reynolds number fixed          Mach number fixed         

 xtrf =   1.000 (top)        1.000 (bottom)
 Mach =   0.000     Re =     0.290 e 6     Ncrit =   9.000

  alpha     CL        CD       CDp       Cm    Top Xtr Bot Xtr   Cpmin    Chinge    XCp    
 ------- -------- --------- --------- -------- ------- ------- -------- --------- ---------
   0.000   0.2084   0.04171   0.03647  -0.1142  0.4851  0.0305  -1.6016   0.0000   0.7931
   1.000   0.3315   0.03081   0.02489  -0.1268  0.4633  0.0403  -1.3409   0.0000   0.6261
   2.000   0.4944   0.01788   0.00987  -0.1392  0.4452  0.0242  -1.5426   0.0000   0.5246
   3.000   0.6209   0.01552   0.00703  -0.1413  0.4294  0.0353  -1.1617   0.0000   0.4693
   4.000   0.7460   0.01510   0.00645  -0.1431  0.4165  0.0438  -1.2843   0.0000   0.4325
   5.000   0.8734   0.01446   0.00675  -0.1461  0.4050  0.3969  -1.4139   0.0000   0.4067
   6.000   0.9772   0.01504   0.00813  -0.1428  0.3946  0.8499  -1.5295   0.0000   0.3842
   7.000   1.0453   0.01645   0.00958  -0.1315  0.3845  0.9039  -1.6263   0.0000   0.3625
   8.000   1.1318   0.01683   0.01004  -0.1252  0.3775  0.9303  -1.7506   0.0000   0.3458
   9.000   1.2322   0.01760   0.01090  -0.1227  0.3679  0.9442  -1.9032   0.0000   0.3333
  10.000   1.3199   0.01827   0.01152  -0.1176  0.3570  0.9653  -2.0711   0.0000   0.3212
  11.000   1.4134   0.01947   0.01295  -0.1147  0.3463  0.9800  -2.2677   0.0000   0.3115
  12.000   1.5290   0.02037   0.01413  -0.1168  0.3339  0.9741  -2.5709   0.0000   0.3048
  13.000   1.6414   0.02191   0.01571  -0.1187  0.3181  0.9690  -2.9389   0.0000   0.2987
  14.000   1.7507   0.02176   0.01580  -0.1197  0.3005  0.9651  -3.3229   0.0000   0.2926
  15.000   1.8498   0.02288   0.01728  -0.1196  0.2817  0.9626  -3.7209   0.0000   0.2865
  16.000   1.9378   0.02425   0.01888  -0.1179  0.2560  0.9607  -4.1377   0.0000   0.2804
  17.000   1.9910   0.02743   0.02236  -0.1122  0.2198  0.9594  -4.4846   0.0000   0.2735
  18.000   1.9486   0.04072   0.03585  -0.1080  0.1821  0.9596  -4.5748   0.0000   0.2702
  19.000   1.8549   0.06370   0.05918  -0.1112  0.1590  0.9584  -4.4912   0.0000   0.2723
  20.000   1.7712   0.08847   0.08420  -0.1176  0.1366  0.9565  -4.4050   0.0000   0.2763
  21.000   1.7106   0.11169   0.10759  -0.1256  0.1146  0.9547  -4.3606   0.0000   0.2810
  22.000   1.6734   0.13246   0.12851  -0.1347  0.0955  0.9537  -4.3970   0.0000   0.2856
  23.000   1.6638   0.14858   0.14486  -0.1430  0.0819  0.9534  -4.5554   0.0000   0.2884
  24.000   1.6600   0.16282   0.15921  -0.1518  0.0715  0.9540  -4.8834   0.0000   0.2912
  25.000   1.6557   0.17846   0.17531  -0.1618  0.0651  0.9556  -5.3836   0.0000   0.2946


