XFLR5 v6.09.05 beta

 Calculated polar for: -15s1223

 1 1 Reynolds number fixed          Mach number fixed         

 xtrf =   1.000 (top)        1.000 (bottom)
 Mach =   0.000     Re =     0.180 e 6     Ncrit =   9.000

  alpha     CL        CD       CDp       Cm    Top Xtr Bot Xtr   Cpmin    Chinge    XCp    
 ------- -------- --------- --------- -------- ------- ------- -------- --------- ---------
   0.000   0.1859   0.05193   0.04651  -0.1012  0.5209  0.0526  -1.0996   0.0000   0.7899
   1.000   0.3113   0.03816   0.03215  -0.1211  0.4992  0.0717  -1.0508   0.0000   0.6326
   2.000   0.4869   0.02149   0.01299  -0.1386  0.4801  0.0353  -1.4428   0.0000   0.5280
   3.000   0.6109   0.01917   0.01017  -0.1403  0.4627  0.0554  -1.1391   0.0000   0.4717
   4.000   0.7349   0.01853   0.00930  -0.1415  0.4493  0.0637  -1.2539   0.0000   0.4335
   5.000   0.8544   0.01819   0.01021  -0.1428  0.4352  0.4690  -1.3729   0.0000   0.4069
   6.000   0.9077   0.01898   0.01166  -0.1270  0.4250  0.9047  -1.4512   0.0000   0.3783
   7.000   0.9552   0.02001   0.01280  -0.1121  0.4164  0.9735  -1.5265   0.0000   0.3544
   8.000   1.0619   0.02139   0.01420  -0.1115  0.4050  1.0000  -1.6602   0.0000   0.3406
   9.000   1.1717   0.02300   0.01573  -0.1117  0.3939  1.0000  -1.8166   0.0000   0.3295
  10.000   1.2725   0.02617   0.01910  -0.1115  0.3818  1.0000  -1.9856   0.0000   0.3202
  11.000   1.3730   0.02810   0.02132  -0.1111  0.3680  1.0000  -2.1826   0.0000   0.3118
  12.000   1.4849   0.02945   0.02271  -0.1122  0.3544  1.0000  -2.4621   0.0000   0.3044
  13.000   1.5701   0.03226   0.02609  -0.1105  0.3387  1.0000  -2.7690   0.0000   0.2974
  14.000   1.6868   0.03185   0.02556  -0.1118  0.3219  1.0000  -3.1620   0.0000   0.2910
  15.000   1.7715   0.03242   0.02673  -0.1095  0.3006  1.0000  -3.5075   0.0000   0.2843
  16.000   1.8526   0.03333   0.02794  -0.1069  0.2792  1.0000  -3.9013   0.0000   0.2778
  17.000   1.8986   0.03567   0.03056  -0.1007  0.2543  1.0000  -4.2235   0.0000   0.2707
  18.000   1.8758   0.04725   0.04262  -0.1003  0.2261  1.0000  -4.3503   0.0000   0.2686
  19.000   1.7948   0.06862   0.06431  -0.1049  0.1976  1.0000  -4.2908   0.0000   0.2711
  20.000   1.7201   0.09164   0.08754  -0.1115  0.1697  1.0000  -4.2177   0.0000   0.2751
  21.000   1.6781   0.11186   0.10793  -0.1189  0.1450  1.0000  -4.2118   0.0000   0.2787
  22.000   1.6537   0.12984   0.12611  -0.1267  0.1256  1.0000  -4.2733   0.0000   0.2820
  23.000   1.6583   0.14245   0.13882  -0.1330  0.1094  1.0000  -4.4762   0.0000   0.2828


