XFLR5 v6.09.05 beta

 Calculated polar for: -15s1223

 1 1 Reynolds number fixed          Mach number fixed         

 xtrf =   1.000 (top)        1.000 (bottom)
 Mach =   0.000     Re =     0.155 e 6     Ncrit =   9.000

  alpha     CL        CD       CDp       Cm    Top Xtr Bot Xtr   Cpmin    Chinge    XCp    
 ------- -------- --------- --------- -------- ------- ------- -------- --------- ---------
   0.000   0.2011   0.05099   0.04529  -0.1098  0.5347  0.0663  -1.1829   0.0000   0.7917
   1.000   0.3100   0.04020   0.03415  -0.1212  0.5123  0.0910  -1.0056   0.0000   0.6348
   2.000   0.4840   0.02356   0.01486  -0.1384  0.4914  0.0403  -1.3951   0.0000   0.5294
   3.000   0.6071   0.02082   0.01179  -0.1400  0.4752  0.0604  -1.1275   0.0000   0.4729
   4.000   0.7316   0.01956   0.01018  -0.1411  0.4606  0.0796  -1.2439   0.0000   0.4339
   5.000   0.8443   0.02013   0.01208  -0.1412  0.4471  0.4935  -1.3524   0.0000   0.4072
   6.000   0.8786   0.02073   0.01352  -0.1213  0.4367  0.9248  -1.4148   0.0000   0.3766
   7.000   0.9520   0.02134   0.01393  -0.1120  0.4266  1.0000  -1.5130   0.0000   0.3548
   8.000   1.0529   0.02438   0.01698  -0.1112  0.4150  1.0000  -1.6376   0.0000   0.3415
   9.000   1.1529   0.02707   0.01986  -0.1106  0.4025  1.0000  -1.7785   0.0000   0.3304
  10.000   1.2625   0.02875   0.02149  -0.1110  0.3903  1.0000  -1.9624   0.0000   0.3207
  11.000   1.3458   0.03335   0.02654  -0.1096  0.3756  1.0000  -2.1283   0.0000   0.3126
  12.000   1.4478   0.03484   0.02816  -0.1094  0.3606  1.0000  -2.3767   0.0000   0.3048
  13.000   1.5308   0.03872   0.03254  -0.1081  0.3452  1.0000  -2.6748   0.0000   0.2979
  14.000   1.6329   0.03865   0.03266  -0.1075  0.3275  1.0000  -3.0330   0.0000   0.2909
  15.000   1.6999   0.04129   0.03583  -0.1042  0.3075  1.0000  -3.3297   0.0000   0.2842
  16.000   1.8186   0.03827   0.03276  -0.1043  0.2856  1.0000  -3.8038   0.0000   0.2776
  17.000   1.8604   0.04033   0.03515  -0.0981  0.2619  1.0000  -4.1127   0.0000   0.2706
  18.000   1.8088   0.05552   0.05086  -0.1000  0.2360  1.0000  -4.1512   0.0000   0.2706
  19.000   1.7591   0.07322   0.06881  -0.1040  0.2067  1.0000  -4.1745   0.0000   0.2720
  20.000   1.7082   0.09260   0.08832  -0.1095  0.1774  1.0000  -4.1691   0.0000   0.2745
  21.000   1.3658   0.17021   0.16654  -0.1457  0.1390  1.0000  -2.9437   0.0000   0.3185
  22.000   1.6485   0.12948   0.12556  -0.1244  0.1310  1.0000  -4.2392   0.0000   0.2809
  23.000   1.2780   0.23879   0.23542  -0.1791  0.1071  1.0000  -2.3119   0.0000   0.3510
  24.000   1.2551   0.27559   0.27240  -0.1938  0.1071  1.0000  -2.0266   0.0000   0.3647


