XFLR5 v6.09.05 beta

 Calculated polar for: -15s1223

 1 1 Reynolds number fixed          Mach number fixed         

 xtrf =   1.000 (top)        1.000 (bottom)
 Mach =   0.000     Re =     0.125 e 6     Ncrit =   9.000

  alpha     CL        CD       CDp       Cm    Top Xtr Bot Xtr   Cpmin    Chinge    XCp    
 ------- -------- --------- --------- -------- ------- ------- -------- --------- ---------
   1.000   0.2939   0.04513   0.03910  -0.1155  0.5326  0.1179  -0.9040   0.0000   0.6370
   2.000   0.4799   0.02553   0.01674  -0.1385  0.5131  0.0473  -1.3949   0.0000   0.5322
   3.000   0.6019   0.02303   0.01364  -0.1398  0.4944  0.0674  -1.1121   0.0000   0.4747
   4.000   0.7194   0.02209   0.01312  -0.1399  0.4801  0.1449  -1.2140   0.0000   0.4359
   5.000   0.8287   0.02263   0.01461  -0.1389  0.4648  0.5414  -1.3214   0.0000   0.4078
   6.000   0.8338   0.02397   0.01656  -0.1130  0.4547  0.9653  -1.3618   0.0000   0.3743
   7.000   0.9298   0.02671   0.01938  -0.1113  0.4430  1.0000  -1.4614   0.0000   0.3573
   8.000   1.0326   0.02912   0.02162  -0.1106  0.4292  1.0000  -1.5908   0.0000   0.3433
   9.000   1.1232   0.03415   0.02670  -0.1098  0.4174  1.0000  -1.7198   0.0000   0.3325
  10.000   1.1877   0.04104   0.03420  -0.1086  0.3992  1.0000  -1.8227   0.0000   0.3249
  11.000   1.1855   0.05663   0.05031  -0.1086  0.3764  1.0000  -1.8307   0.0000   0.3239
  12.000   1.2367   0.06327   0.05707  -0.1078  0.3577  1.0000  -1.9612   0.0000   0.3176
  13.000   1.4377   0.05294   0.04666  -0.1050  0.3528  1.0000  -2.4578   0.0000   0.3009
  16.000   1.2279   0.12138   0.11608  -0.1207  0.2579  1.0000  -2.1997   0.0000   0.3220
  17.000   1.2433   0.13332   0.12822  -0.1250  0.2333  1.0000  -2.2931   0.0000   0.3222
  18.000   1.2506   0.14742   0.14254  -0.1310  0.2073  1.0000  -2.3454   0.0000   0.3246
  19.000   1.2638   0.16085   0.15617  -0.1376  0.1824  1.0000  -2.4339   0.0000   0.3266
  20.000   1.2596   0.17924   0.17477  -0.1476  0.1590  1.0000  -2.4027   0.0000   0.3334
  21.000   1.2296   0.20821   0.20393  -0.1630  0.1389  1.0000  -2.1533   0.0000   0.3482
  22.000   1.2423   0.22796   0.22397  -0.1720  0.1275  1.0000  -2.1311   0.0000   0.3522
  23.000   1.2487   0.25655   0.25280  -0.1813  0.1306  1.0000  -2.0324   0.0000   0.3575
  24.000   1.2191   0.29059   0.28702  -0.1991  0.1367  1.0000  -1.7189   0.0000   0.3754
  25.000   1.2631   0.31677   0.31347  -0.1991  0.1312  1.0000  -1.9388   0.0000   0.3666


