XFLR5 v6.09.05 beta

 Calculated polar for: -15s1223

 1 1 Reynolds number fixed          Mach number fixed         

 xtrf =   1.000 (top)        1.000 (bottom)
 Mach =   0.000     Re =     0.170 e 6     Ncrit =   9.000

  alpha     CL        CD       CDp       Cm    Top Xtr Bot Xtr   Cpmin    Chinge    XCp    
 ------- -------- --------- --------- -------- ------- ------- -------- --------- ---------
   0.000   0.1877   0.05285   0.04733  -0.1013  0.5252  0.0577  -1.0719   0.0000   0.7851
   1.000   0.3068   0.03977   0.03383  -0.1192  0.5041  0.0766  -1.0043   0.0000   0.6322
   2.000   0.4855   0.02225   0.01372  -0.1385  0.4849  0.0372  -1.4180   0.0000   0.5287
   3.000   0.6095   0.01971   0.01072  -0.1402  0.4674  0.0575  -1.1350   0.0000   0.4721
   4.000   0.7337   0.01911   0.00979  -0.1414  0.4531  0.0694  -1.2496   0.0000   0.4337
   5.000   0.8505   0.01890   0.01092  -0.1422  0.4396  0.4784  -1.3648   0.0000   0.4070
   6.000   0.8993   0.01952   0.01223  -0.1253  0.4295  0.9130  -1.4400   0.0000   0.3778
   8.000   1.0586   0.02249   0.01523  -0.1114  0.4088  1.0000  -1.6516   0.0000   0.3409
   9.000   1.1650   0.02440   0.01717  -0.1113  0.3971  1.0000  -1.8030   0.0000   0.3297
  10.000   1.2675   0.02769   0.02052  -0.1113  0.3843  1.0000  -1.9748   0.0000   0.3204
  11.000   1.3639   0.02995   0.02316  -0.1106  0.3709  1.0000  -2.1640   0.0000   0.3120
  12.000   1.4755   0.03076   0.02408  -0.1113  0.3574  1.0000  -2.4398   0.0000   0.3045
  13.000   1.5576   0.03445   0.02827  -0.1097  0.3412  1.0000  -2.7384   0.0000   0.2975
  14.000   1.6735   0.03357   0.02737  -0.1106  0.3247  1.0000  -3.1291   0.0000   0.2909
  16.000   1.8394   0.03514   0.02973  -0.1058  0.2817  1.0000  -3.8638   0.0000   0.2777
  17.000   1.8895   0.03702   0.03182  -0.1000  0.2570  1.0000  -4.1956   0.0000   0.2706
  18.000   1.8678   0.04823   0.04350  -0.0995  0.2293  1.0000  -4.3249   0.0000   0.2684
  19.000   1.7872   0.06948   0.06510  -0.1042  0.2010  1.0000  -4.2649   0.0000   0.2710
  20.000   1.7106   0.09277   0.08863  -0.1111  0.1730  1.0000  -4.1831   0.0000   0.2753
  21.000   1.6663   0.11348   0.10953  -0.1189  0.1479  1.0000  -4.1653   0.0000   0.2793
  22.000   1.6463   0.13070   0.12693  -0.1264  0.1280  1.0000  -4.2387   0.0000   0.2822
  23.000   1.6201   0.14935   0.14589  -0.1368  0.1136  1.0000  -4.2918   0.0000   0.2875


