XFLR5 v6.09.05 beta

 Calculated polar for: -15s1223

 1 1 Reynolds number fixed          Mach number fixed         

 xtrf =   1.000 (top)        1.000 (bottom)
 Mach =   0.000     Re =     0.045 e 6     Ncrit =   9.000

  alpha     CL        CD       CDp       Cm    Top Xtr Bot Xtr   Cpmin    Chinge    XCp    
 ------- -------- --------- --------- -------- ------- ------- -------- --------- ---------
   0.000   0.1601   0.07561   0.06978  -0.0849  0.7056  0.2968  -0.7622   0.0000   0.7830
   1.000   0.1731   0.07220   0.06673  -0.0850  0.6837  0.3640  -0.7606   0.0000   0.7409
   2.000   0.1812   0.06779   0.06263  -0.0681  0.6687  0.5043  -0.7754   0.0000   0.6233
   3.000   0.1358   0.06720   0.06255  -0.0533  0.6542  0.5660  -0.7265   0.0000   0.6385
   4.000   0.5708   0.05325   0.04377  -0.1467  0.6336  0.1664  -0.9269   0.0000   0.5012
   5.000   0.5971   0.05822   0.05126  -0.1442  0.6309  0.6592  -0.9733   0.0000   0.4849
   6.000   0.4543   0.07500   0.06615  -0.1475  0.8089  0.1810  -0.9497   0.0000   0.5680
   7.000   0.5158   0.07931   0.07223  -0.1396  0.7545  1.0000  -0.9150   0.0000   0.5128
   8.000   0.5775   0.08862   0.08053  -0.1396  0.7159  1.0000  -0.7965   0.0000   0.4825
   9.000   0.6605   0.10018   0.09145  -0.1417  0.6752  1.0000  -0.8725   0.0000   0.4541
  10.000   0.7255   0.11191   0.10285  -0.1428  0.6390  1.0000  -0.9301   0.0000   0.4350
  11.000   0.8064   0.12730   0.11804  -0.1454  0.6013  1.0000  -1.0182   0.0000   0.4170
  12.000   0.8652   0.14148   0.13216  -0.1465  0.5647  1.0000  -1.0925   0.0000   0.4046
  13.000   0.9076   0.15400   0.14472  -0.1469  0.5285  1.0000  -1.1517   0.0000   0.3957
  14.000   0.9496   0.16747   0.15843  -0.1478  0.4920  1.0000  -1.2226   0.0000   0.3880
  15.000   0.9453   0.17240   0.16351  -0.1476  0.4582  1.0000  -1.2283   0.0000   0.3870
  16.000   0.9641   0.18218   0.17345  -0.1500  0.4245  1.0000  -1.2760   0.0000   0.3849
  17.000   0.9801   0.19222   0.18368  -0.1545  0.3944  1.0000  -1.2999   0.0000   0.3854
  18.000   1.0047   0.20445   0.19611  -0.1603  0.3693  1.0000  -1.3160   0.0000   0.3857
  19.000   1.0392   0.21993   0.21181  -0.1656  0.3443  1.0000  -1.3551   0.0000   0.3837
  20.000   1.1156   0.25479   0.24728  -0.1683  0.3193  1.0000  -1.5050   0.0000   0.3730
  21.000   1.1045   0.25119   0.24385  -0.1768  0.2937  1.0000  -1.4216   0.0000   0.3805
  22.000   1.1185   0.26838   0.26125  -0.1850  0.2816  1.0000  -1.3919   0.0000   0.3839


