XFLR5 v6.09.05 beta

 Calculated polar for: -15s1223

 1 1 Reynolds number fixed          Mach number fixed         

 xtrf =   1.000 (top)        1.000 (bottom)
 Mach =   0.000     Re =     0.210 e 6     Ncrit =   9.000

  alpha     CL        CD       CDp       Cm    Top Xtr Bot Xtr   Cpmin    Chinge    XCp    
 ------- -------- --------- --------- -------- ------- ------- -------- --------- ---------
   0.000   0.2164   0.04978   0.04424  -0.1110  0.5078  0.0447  -1.3033   0.0000   0.7583
   1.000   0.3297   0.03773   0.03151  -0.1240  0.4863  0.0635  -1.1409   0.0000   0.6197
   2.000   0.4896   0.02014   0.01163  -0.1384  0.4678  0.0303  -1.5081   0.0000   0.5258
   3.000   0.6145   0.01812   0.00925  -0.1406  0.4511  0.0481  -1.1463   0.0000   0.4708
   4.000   0.7392   0.01699   0.00798  -0.1420  0.4379  0.0570  -1.2659   0.0000   0.4329
   5.000   0.8633   0.01699   0.00889  -0.1444  0.4232  0.4443  -1.3907   0.0000   0.4069
   6.000   0.9370   0.01804   0.01090  -0.1337  0.4147  0.8852  -1.4799   0.0000   0.3810
   7.000   0.9877   0.01842   0.01138  -0.1187  0.4061  0.9460  -1.5634   0.0000   0.3571
   8.000   1.0697   0.01885   0.01170  -0.1118  0.3958  0.9802  -1.6822   0.0000   0.3400
   9.000   1.1772   0.02143   0.01429  -0.1120  0.3842  1.0000  -1.8316   0.0000   0.3292
  10.000   1.2841   0.02281   0.01596  -0.1121  0.3737  1.0000  -2.0112   0.0000   0.3197
  11.000   1.3952   0.02380   0.01695  -0.1128  0.3610  1.0000  -2.2276   0.0000   0.3115
  12.000   1.4958   0.02645   0.01996  -0.1128  0.3478  1.0000  -2.4921   0.0000   0.3042
  13.000   1.6001   0.02711   0.02088  -0.1129  0.3324  1.0000  -2.8426   0.0000   0.2973
  14.000   1.7031   0.02825   0.02213  -0.1131  0.3158  1.0000  -3.2071   0.0000   0.2910
  15.000   1.8043   0.02758   0.02175  -0.1125  0.2945  1.0000  -3.5996   0.0000   0.2846
  16.000   1.8830   0.02916   0.02380  -0.1098  0.2723  1.0000  -3.9887   0.0000   0.2782
  17.000   1.9304   0.03195   0.02698  -0.1036  0.2453  1.0000  -4.3159   0.0000   0.2711
  18.000   1.9106   0.04316   0.03855  -0.1020  0.2145  1.0000  -4.4567   0.0000   0.2684
  19.000   1.8286   0.06444   0.06007  -0.1058  0.1864  1.0000  -4.4014   0.0000   0.2704
  20.000   1.7545   0.08706   0.08285  -0.1117  0.1601  1.0000  -4.3395   0.0000   0.2738
  21.000   1.7068   0.10786   0.10381  -0.1188  0.1370  1.0000  -4.3291   0.0000   0.2773
  22.000   1.6759   0.12711   0.12331  -0.1272  0.1177  1.0000  -4.3806   0.0000   0.2811
  23.000   1.6543   0.14518   0.14161  -0.1369  0.1012  1.0000  -4.4867   0.0000   0.2853
  24.000   1.6433   0.16103   0.15760  -0.1473  0.0867  1.0000  -4.7662   0.0000   0.2895
  25.000   1.6370   0.17766   0.17443  -0.1584  0.0749  1.0000  -5.1620   0.0000   0.2939


