XFLR5 v6.09.05 beta

 Calculated polar for: -15s1223

 1 1 Reynolds number fixed          Mach number fixed         

 xtrf =   1.000 (top)        1.000 (bottom)
 Mach =   0.000     Re =     0.135 e 6     Ncrit =   9.000

  alpha     CL        CD       CDp       Cm    Top Xtr Bot Xtr   Cpmin    Chinge    XCp    
 ------- -------- --------- --------- -------- ------- ------- -------- --------- ---------
   0.000   0.1838   0.05567   0.05014  -0.0990  0.5467  0.0758  -0.9775   0.0000   0.7848
   2.000   0.4788   0.02591   0.01727  -0.1372  0.5053  0.0445  -1.3527   0.0000   0.5302
   3.000   0.6034   0.02281   0.01355  -0.1397  0.4876  0.0641  -1.1172   0.0000   0.4740
   4.000   0.7254   0.02110   0.01190  -0.1406  0.4726  0.1046  -1.2257   0.0000   0.4351
   5.000   0.8352   0.02174   0.01359  -0.1398  0.4578  0.5245  -1.3360   0.0000   0.4074
   6.000   0.8498   0.02274   0.01546  -0.1159  0.4487  0.9476  -1.3799   0.0000   0.3751
   7.000   0.9383   0.02458   0.01727  -0.1114  0.4366  1.0000  -1.4798   0.0000   0.3562
   8.000   1.0465   0.02660   0.01898  -0.1112  0.4244  1.0000  -1.6195   0.0000   0.3423
   9.000   1.1318   0.03163   0.02436  -0.1098  0.4118  1.0000  -1.7374   0.0000   0.3317
  10.000   1.2255   0.03499   0.02797  -0.1093  0.3967  1.0000  -1.8921   0.0000   0.3223
  11.000   1.3194   0.03891   0.03193  -0.1087  0.3832  1.0000  -2.0758   0.0000   0.3137
  12.000   1.3664   0.04613   0.03974  -0.1063  0.3630  1.0000  -2.2108   0.0000   0.3076
  13.000   1.4814   0.04675   0.04049  -0.1061  0.3505  1.0000  -2.5585   0.0000   0.2992
  14.000   1.1719   0.09967   0.09407  -0.1175  0.2956  1.0000  -1.9218   0.0000   0.3279
  15.000   1.3173   0.09111   0.08577  -0.1108  0.2895  1.0000  -2.3891   0.0000   0.3086
  16.000   1.5827   0.06398   0.05887  -0.1000  0.2901  1.0000  -3.1858   0.0000   0.2842
  20.000   1.4760   0.13177   0.12762  -0.1242  0.1788  1.0000  -3.3558   0.0000   0.2964
  22.000   1.2360   0.22947   0.22564  -0.1740  0.1221  1.0000  -2.0912   0.0000   0.3548
  23.000   1.2326   0.25995   0.25634  -0.1855  0.1288  1.0000  -1.9172   0.0000   0.3634
  24.000   1.2592   0.28482   0.28147  -0.1913  0.1324  1.0000  -1.9770   0.0000   0.3627
  25.000   1.2247   0.31390   0.31067  -0.2082  0.1245  1.0000  -1.6907   0.0000   0.3800


