XFLR5 v6.09.05 beta

 Calculated polar for: -15s1223

 1 1 Reynolds number fixed          Mach number fixed         

 xtrf =   1.000 (top)        1.000 (bottom)
 Mach =   0.000     Re =     0.070 e 6     Ncrit =   9.000

  alpha     CL        CD       CDp       Cm    Top Xtr Bot Xtr   Cpmin    Chinge    XCp    
 ------- -------- --------- --------- -------- ------- ------- -------- --------- ---------
   0.000   0.1665   0.06847   0.06292  -0.0913  0.6192  0.1791  -0.7930   0.0000   0.7984
   1.000   0.2392   0.06058   0.05483  -0.0978  0.6001  0.2238  -0.8385   0.0000   0.6553
   2.000   0.4271   0.04024   0.03268  -0.1363  0.5783  0.0991  -1.1462   0.0000   0.5641
   3.000   0.5598   0.03542   0.02633  -0.1408  0.5602  0.1016  -1.0140   0.0000   0.4952
   4.000   0.6463   0.03693   0.02791  -0.1378  0.5433  0.1401  -1.0643   0.0000   0.4560
   5.000   0.7208   0.03756   0.03051  -0.1283  0.5298  0.8259  -1.1502   0.0000   0.4195
   6.000   0.7240   0.04768   0.04069  -0.1212  0.5172  1.0000  -1.1172   0.0000   0.4082
   7.000   0.7329   0.06150   0.05437  -0.1255  0.5098  1.0000  -1.0761   0.0000   0.4114
   8.000   0.7865   0.07700   0.06962  -0.1303  0.5263  1.0000  -1.1012   0.0000   0.4050
  11.000   0.8471   0.11482   0.10734  -0.1372  0.4954  1.0000  -1.1103   0.0000   0.3980
  12.000   0.8709   0.12483   0.11736  -0.1371  0.4611  1.0000  -1.1435   0.0000   0.3921
  13.000   0.8851   0.13583   0.12843  -0.1384  0.4298  1.0000  -1.1557   0.0000   0.3898
  14.000   0.9068   0.14814   0.14086  -0.1411  0.4024  1.0000  -1.1819   0.0000   0.3875
  15.000   0.9597   0.16343   0.15635  -0.1437  0.3812  1.0000  -1.2832   0.0000   0.3801
  16.000   1.0684   0.18408   0.17715  -0.1444  0.3518  1.0000  -1.5401   0.0000   0.3633
  17.000   1.0416   0.18804   0.18130  -0.1498  0.3228  1.0000  -1.4761   0.0000   0.3705
  18.000   1.0475   0.19860   0.19204  -0.1570  0.2956  1.0000  -1.4457   0.0000   0.3751
  19.000   1.0647   0.21392   0.20756  -0.1651  0.2789  1.0000  -1.4347   0.0000   0.3788
  20.000   1.1293   0.23723   0.23132  -0.1668  0.2582  1.0000  -1.5799   0.0000   0.3690
  21.000   1.1327   0.24491   0.23919  -0.1764  0.2355  1.0000  -1.5115   0.0000   0.3753
  22.000   1.1420   0.26255   0.25699  -0.1861  0.2189  1.0000  -1.4686   0.0000   0.3808
  25.000   1.2341   0.33204   0.32742  -0.1996  0.1784  1.0000  -1.7216   0.0000   0.3723


