XFLR5 v6.09.05 beta

 Calculated polar for: -15s1223

 1 1 Reynolds number fixed          Mach number fixed         

 xtrf =   1.000 (top)        1.000 (bottom)
 Mach =   0.000     Re =     0.115 e 6     Ncrit =   9.000

  alpha     CL        CD       CDp       Cm    Top Xtr Bot Xtr   Cpmin    Chinge    XCp    
 ------- -------- --------- --------- -------- ------- ------- -------- --------- ---------
   0.000   0.1840   0.05768   0.05197  -0.0994  0.5632  0.0937  -0.9422   0.0000   0.7868
   1.000   0.2855   0.04776   0.04187  -0.1119  0.5404  0.1290  -0.8965   0.0000   0.6361
   2.000   0.4764   0.02677   0.01805  -0.1386  0.5221  0.0517  -1.3550   0.0000   0.5347
   3.000   0.5980   0.02398   0.01475  -0.1398  0.5024  0.0718  -1.1016   0.0000   0.4763
   5.000   0.8190   0.02435   0.01653  -0.1381  0.4721  0.5617  -1.3004   0.0000   0.4089
   6.000   0.8294   0.02462   0.01727  -0.1127  0.4621  1.0000  -1.3488   0.0000   0.3748
   7.000   0.9223   0.02894   0.02148  -0.1113  0.4505  1.0000  -1.4449   0.0000   0.3584
   8.000   1.0115   0.03315   0.02579  -0.1103  0.4344  1.0000  -1.5491   0.0000   0.3455
   9.000   1.1143   0.03628   0.02873  -0.1100  0.4234  1.0000  -1.6997   0.0000   0.3336
  10.000   1.0873   0.05648   0.04987  -0.1119  0.3965  1.0000  -1.6378   0.0000   0.3371
  11.000   1.2506   0.04957   0.04268  -0.1079  0.3894  1.0000  -1.9435   0.0000   0.3182
  14.000   1.0670   0.11851   0.11261  -0.1254  0.2992  1.0000  -1.6353   0.0000   0.3465
  15.000   1.0860   0.13098   0.12522  -0.1284  0.2739  1.0000  -1.7192   0.0000   0.3455
  16.000   1.2016   0.12763   0.12213  -0.1230  0.2607  1.0000  -2.1076   0.0000   0.3265
  17.000   1.1986   0.14352   0.13824  -0.1293  0.2340  1.0000  -2.1281   0.0000   0.3304
  19.000   1.2219   0.17136   0.16650  -0.1424  0.1833  1.0000  -2.2351   0.0000   0.3354
  20.000   1.2142   0.19177   0.18711  -0.1538  0.1607  1.0000  -2.1530   0.0000   0.3442
  21.000   1.2042   0.21679   0.21232  -0.1666  0.1460  1.0000  -1.9844   0.0000   0.3548
  22.000   1.1952   0.24610   0.24183  -0.1800  0.1490  1.0000  -1.7832   0.0000   0.3663
  23.000   1.2157   0.27025   0.26637  -0.1879  0.1569  1.0000  -1.7517   0.0000   0.3685
  24.000   1.2057   0.29476   0.29100  -0.2010  0.1449  1.0000  -1.6289   0.0000   0.3792
  25.000   1.2384   0.31158   0.30808  -0.2038  0.1339  1.0000  -1.7916   0.0000   0.3741


