XFLR5 v6.09.05 beta

 Calculated polar for: -20S1223

 1 1 Reynolds number fixed          Mach number fixed         

 xtrf =   1.000 (top)        1.000 (bottom)
 Mach =   0.000     Re =     0.190 e 6     Ncrit =   9.000

  alpha     CL        CD       CDp       Cm    Top Xtr Bot Xtr   Cpmin    Chinge    XCp    
 ------- -------- --------- --------- -------- ------- ------- -------- --------- ---------
   0.000  -0.0330   0.06716   0.06214  -0.0584  0.5185  0.0413  -1.2974   0.0000  -1.5214
   1.000   0.0481   0.05109   0.04571  -0.0759  0.5010  0.0472  -1.4171   0.0000   1.8071
   2.000   0.1623   0.04281   0.03667  -0.0849  0.4832  0.0633  -1.2576   0.0000   0.7609
   4.000   0.4047   0.02032   0.01150  -0.0914  0.4537  0.0400  -1.2670   0.0000   0.4649
   5.000   0.5169   0.01871   0.00993  -0.0902  0.4416  0.0530  -1.1218   0.0000   0.4129
   6.000   0.6298   0.01770   0.00981  -0.0893  0.4286  0.4014  -1.2326   0.0000   0.3792
   8.000   0.7461   0.02150   0.01474  -0.0603  0.4106  0.9009  -1.3893   0.0000   0.3159
   9.000   0.8275   0.02232   0.01548  -0.0530  0.3993  0.9215  -1.5037   0.0000   0.2978
  10.000   0.9127   0.02447   0.01752  -0.0480  0.3883  0.9333  -1.6290   0.0000   0.2851
  11.000   0.9881   0.02603   0.01940  -0.0422  0.3779  0.9480  -1.7623   0.0000   0.2738
  12.000   1.0761   0.02697   0.02051  -0.0389  0.3651  0.9576  -1.9273   0.0000   0.2656
  13.000   1.1869   0.02939   0.02294  -0.0416  0.3518  0.9515  -2.1499   0.0000   0.2628
  14.000   1.2901   0.03157   0.02567  -0.0446  0.3360  0.9466  -2.4416   0.0000   0.2604
  15.000   1.4156   0.03190   0.02592  -0.0484  0.3205  0.9421  -2.8288   0.0000   0.2579
  16.000   1.5186   0.03166   0.02604  -0.0501  0.3012  0.9404  -3.1884   0.0000   0.2545
  18.000   1.6909   0.03408   0.02911  -0.0528  0.2532  0.9398  -3.9455   0.0000   0.2479
  19.000   1.6786   0.04606   0.04143  -0.0587  0.2244  0.9410  -4.0718   0.0000   0.2491
  20.000   1.6187   0.06481   0.06039  -0.0654  0.1954  0.9406  -4.0501   0.0000   0.2522
  21.000   1.5739   0.08369   0.07945  -0.0726  0.1673  0.9398  -4.0506   0.0000   0.2556
  22.000   1.5433   0.10165   0.09756  -0.0799  0.1434  0.9388  -4.0696   0.0000   0.2590
  23.000   1.5179   0.11994   0.11608  -0.0882  0.1246  0.9379  -4.1086   0.0000   0.2630
  24.000   1.5073   0.13609   0.13244  -0.0965  0.1103  0.9371  -4.2139   0.0000   0.2665
  25.000   1.1898   0.23029   0.22712  -0.1430  0.0905  0.9356  -2.4177   0.0000   0.3286


