XFLR5 v6.09.05 beta

 Calculated polar for: -20S1223

 1 1 Reynolds number fixed          Mach number fixed         

 xtrf =   1.000 (top)        1.000 (bottom)
 Mach =   0.000     Re =     0.120 e 6     Ncrit =   9.000

  alpha     CL        CD       CDp       Cm    Top Xtr Bot Xtr   Cpmin    Chinge    XCp    
 ------- -------- --------- --------- -------- ------- ------- -------- --------- ---------
   1.000   0.0481   0.05899   0.05346  -0.0763  0.5385  0.0878  -1.1945   0.0000   1.8208
   2.000   0.1311   0.04934   0.04365  -0.0804  0.5217  0.1162  -1.0099   0.0000   0.8509
   3.000   0.2330   0.04145   0.03539  -0.0843  0.5035  0.1749  -0.8828   0.0000   0.6002
   4.000   0.3903   0.02672   0.01771  -0.0919  0.4909  0.0662  -1.1740   0.0000   0.4751
   5.000   0.4947   0.02549   0.01659  -0.0893  0.4766  0.0719  -1.0597   0.0000   0.4197
   6.000   0.5885   0.02473   0.01712  -0.0837  0.4633  0.4884  -1.1534   0.0000   0.3804
   7.000   0.5987   0.02828   0.02147  -0.0589  0.4538  0.9156  -1.1883   0.0000   0.3354
   8.000   0.6609   0.03224   0.02561  -0.0522  0.4380  0.9842  -1.2428   0.0000   0.3151
   9.000   0.8267   0.03313   0.02599  -0.0619  0.4262  1.0000  -1.4304   0.0000   0.3097
  10.000   0.7306   0.05228   0.04591  -0.0544  0.4009  1.0000  -1.2794   0.0000   0.3090
  11.000   0.8371   0.05245   0.04582  -0.0497  0.3917  1.0000  -1.4563   0.0000   0.2922
  12.000   0.7721   0.07380   0.06746  -0.0601  0.3639  1.0000  -1.3092   0.0000   0.3103
  13.000   0.7963   0.08476   0.07846  -0.0634  0.3402  1.0000  -1.3398   0.0000   0.3108
  14.000   0.9072   0.08542   0.07915  -0.0606  0.3253  1.0000  -1.5723   0.0000   0.2956
  16.000   0.9076   0.11396   0.10800  -0.0718  0.2714  1.0000  -1.5926   0.0000   0.3056
  17.000   0.9306   0.12596   0.12015  -0.0761  0.2482  1.0000  -1.6744   0.0000   0.3068
  18.000   1.0401   0.12399   0.11846  -0.0731  0.2347  1.0000  -2.0397   0.0000   0.2920
  19.000   1.0502   0.13726   0.13193  -0.0794  0.2090  1.0000  -2.0791   0.0000   0.2957
  20.000   1.0604   0.15190   0.14678  -0.0869  0.1845  1.0000  -2.1156   0.0000   0.3005
  21.000   1.0543   0.17151   0.16660  -0.0976  0.1617  1.0000  -2.0452   0.0000   0.3101
  22.000   1.0381   0.19556   0.19084  -0.1116  0.1474  1.0000  -1.8317   0.0000   0.3247
  23.000   1.0679   0.21067   0.20614  -0.1198  0.1377  1.0000  -1.8626   0.0000   0.3275
  25.000   1.0711   0.26099   0.25698  -0.1468  0.1426  1.0000  -1.5653   0.0000   0.3508


