XFLR5 v6.09.05 beta

 Calculated polar for: -20S1223

 1 1 Reynolds number fixed          Mach number fixed         

 xtrf =   1.000 (top)        1.000 (bottom)
 Mach =   0.000     Re =     0.200 e 6     Ncrit =   9.000

  alpha     CL        CD       CDp       Cm    Top Xtr Bot Xtr   Cpmin    Chinge    XCp    
 ------- -------- --------- --------- -------- ------- ------- -------- --------- ---------
   0.000  -0.0375   0.06673   0.06178  -0.0561  0.5143  0.0376  -1.2748   0.0000  -1.2444
   1.000   0.0670   0.05349   0.04789  -0.0777  0.4950  0.0442  -1.4365   0.0000   1.3944
   2.000   0.1495   0.03976   0.03401  -0.0840  0.4796  0.0575  -1.2434   0.0000   0.7985
   3.000   0.2685   0.02941   0.02259  -0.0912  0.4626  0.0913  -1.0637   0.0000   0.5777
   4.000   0.4056   0.01968   0.01095  -0.0915  0.4505  0.0386  -1.2762   0.0000   0.4644
   5.000   0.5186   0.01812   0.00937  -0.0903  0.4380  0.0511  -1.1268   0.0000   0.4125
   6.000   0.6324   0.01747   0.00959  -0.0899  0.4241  0.3949  -1.2372   0.0000   0.3796
   7.000   0.7025   0.01951   0.01269  -0.0777  0.4161  0.8548  -1.3215   0.0000   0.3469
   8.000   0.7600   0.02085   0.01411  -0.0632  0.4070  0.8927  -1.4046   0.0000   0.3183
   9.000   0.8468   0.02183   0.01493  -0.0567  0.3963  0.9136  -1.5256   0.0000   0.3007
  10.000   0.9256   0.02396   0.01711  -0.0507  0.3858  0.9241  -1.6434   0.0000   0.2872
  11.000   1.0070   0.02527   0.01867  -0.0454  0.3750  0.9398  -1.7864   0.0000   0.2761
  12.000   1.0990   0.02563   0.01911  -0.0422  0.3631  0.9480  -1.9602   0.0000   0.2677
  13.000   1.2114   0.02856   0.02218  -0.0458  0.3495  0.9418  -2.1869   0.0000   0.2654
  14.000   1.3160   0.02962   0.02367  -0.0474  0.3344  0.9384  -2.4953   0.0000   0.2618
  15.000   1.4289   0.03035   0.02442  -0.0499  0.3190  0.9348  -2.8590   0.0000   0.2585
  16.000   1.5419   0.02940   0.02368  -0.0523  0.2991  0.9320  -3.2432   0.0000   0.2553
  17.000   1.6384   0.03022   0.02496  -0.0541  0.2762  0.9307  -3.6363   0.0000   0.2520
  18.000   1.7106   0.03272   0.02778  -0.0551  0.2497  0.9314  -3.9978   0.0000   0.2487
  19.000   1.7001   0.04432   0.03971  -0.0601  0.2202  0.9338  -4.1323   0.0000   0.2494
  20.000   1.6425   0.06260   0.05821  -0.0665  0.1912  0.9339  -4.1218   0.0000   0.2522
  21.000   1.5948   0.08163   0.07731  -0.0735  0.1635  0.9330  -4.1179   0.0000   0.2554
  22.000   1.5633   0.09965   0.09548  -0.0808  0.1402  0.9320  -4.1381   0.0000   0.2587
  23.000   1.5353   0.11835   0.11448  -0.0892  0.1220  0.9310  -4.1755   0.0000   0.2628
  24.000   1.5150   0.13632   0.13272  -0.0985  0.1080  0.9303  -4.2477   0.0000   0.2674
  25.000   1.4575   0.16203   0.15890  -0.1140  0.0975  0.9294  -4.1156   0.0000   0.2790


