XFLR5 v6.09.05 beta

 Calculated polar for: -20S1223

 1 1 Reynolds number fixed          Mach number fixed         

 xtrf =   1.000 (top)        1.000 (bottom)
 Mach =   0.000     Re =     0.285 e 6     Ncrit =   9.000

  alpha     CL        CD       CDp       Cm    Top Xtr Bot Xtr   Cpmin    Chinge    XCp    
 ------- -------- --------- --------- -------- ------- ------- -------- --------- ---------
   0.000  -0.0261   0.06471   0.05993  -0.0610  0.4884  0.0277  -1.4713   0.0000  -2.0806
   1.000   0.0668   0.04909   0.04392  -0.0773  0.4719  0.0283  -1.6015   0.0000   1.3900
   2.000   0.1572   0.03404   0.02830  -0.0865  0.4544  0.0361  -1.4756   0.0000   0.7871
   3.000   0.2814   0.02405   0.01719  -0.0923  0.4401  0.0512  -1.2732   0.0000   0.5662
   4.000   0.4117   0.01697   0.00849  -0.0918  0.4256  0.0296  -1.3341   0.0000   0.4615
   5.000   0.5270   0.01571   0.00730  -0.0915  0.4159  0.0422  -1.1500   0.0000   0.4116
   6.000   0.6484   0.01436   0.00676  -0.0927  0.4043  0.3420  -1.2686   0.0000   0.3802
   7.000   0.7460   0.01546   0.00882  -0.0875  0.3942  0.8236  -1.3755   0.0000   0.3534
   8.000   0.8294   0.01804   0.01142  -0.0789  0.3853  0.8488  -1.4807   0.0000   0.3301
   9.000   0.9053   0.01848   0.01195  -0.0694  0.3774  0.8676  -1.5937   0.0000   0.3102
  10.000   1.0066   0.01943   0.01288  -0.0668  0.3675  0.8795  -1.7410   0.0000   0.2985
  11.000   1.0966   0.02071   0.01418  -0.0625  0.3553  0.8917  -1.9021   0.0000   0.2876
  12.000   1.1787   0.02128   0.01501  -0.0564  0.3468  0.9069  -2.0734   0.0000   0.2768
  13.000   1.2957   0.02178   0.01560  -0.0593  0.3344  0.9009  -2.3310   0.0000   0.2729
  14.000   1.4140   0.02298   0.01697  -0.0631  0.3194  0.8950  -2.6941   0.0000   0.2698
  15.000   1.5355   0.02285   0.01705  -0.0675  0.3025  0.8898  -3.0839   0.0000   0.2670
  16.000   1.6448   0.02363   0.01813  -0.0699  0.2824  0.8857  -3.4732   0.0000   0.2633
  17.000   1.7413   0.02471   0.01943  -0.0706  0.2574  0.8833  -3.8941   0.0000   0.2590
  18.000   1.8196   0.02774   0.02274  -0.0718  0.2217  0.8820  -4.2803   0.0000   0.2555
  19.000   1.7961   0.03995   0.03523  -0.0730  0.1882  0.8819  -4.3961   0.0000   0.2543
  20.000   1.7155   0.06039   0.05590  -0.0780  0.1637  0.8826  -4.3310   0.0000   0.2568
  21.000   1.6487   0.08178   0.07744  -0.0847  0.1398  0.8831  -4.2803   0.0000   0.2604
  22.000   1.5979   0.10273   0.09853  -0.0927  0.1179  0.8836  -4.2537   0.0000   0.2648
  23.000   1.5660   0.12204   0.11798  -0.1013  0.0988  0.8842  -4.3019   0.0000   0.2692
  24.000   1.5524   0.13959   0.13573  -0.1112  0.0839  0.8867  -4.4282   0.0000   0.2737
  25.000   1.5556   0.15364   0.14988  -0.1199  0.0731  0.8883  -4.7439   0.0000   0.2764


