XFLR5 v6.09.05 beta

 Calculated polar for: -20S1223

 1 1 Reynolds number fixed          Mach number fixed         

 xtrf =   1.000 (top)        1.000 (bottom)
 Mach =   0.000     Re =     0.050 e 6     Ncrit =   9.000

  alpha     CL        CD       CDp       Cm    Top Xtr Bot Xtr   Cpmin    Chinge    XCp    
 ------- -------- --------- --------- -------- ------- ------- -------- --------- ---------
   0.000  -0.0190   0.09360   0.08802  -0.0667  0.6770  0.2344  -0.9166   0.0000  -3.3068
   1.000   0.0201   0.08466   0.07930  -0.0700  0.6606  0.2754  -0.8851   0.0000   3.7554
   2.000   0.0608   0.07409   0.06900  -0.0675  0.6460  0.3213  -0.8305   0.0000   1.3590
   3.000   0.0895   0.06778   0.06289  -0.0589  0.6308  0.4220  -0.7780   0.0000   0.9022
   4.000   0.3101   0.05336   0.04536  -0.1096  0.6216  0.1280  -1.1370   0.0000   0.5969
   5.000   0.3807   0.05472   0.04580  -0.1110  0.6201  0.1306  -1.0009   0.0000   0.5343
   6.000   0.4500   0.06132   0.05246  -0.1080  0.6361  0.2116  -0.9788   0.0000   0.4820
   7.000   0.4122   0.06895   0.06241  -0.1113  0.7372  0.6039  -1.0608   0.0000   0.5117
   8.000   0.4115   0.07481   0.06764  -0.0913  0.7052  1.0000  -0.9282   0.0000   0.4623
   9.000   0.4798   0.08450   0.07642  -0.0906  0.6713  1.0000  -0.7896   0.0000   0.4282
  10.000   0.5395   0.09402   0.08542  -0.0899  0.6361  1.0000  -0.8467   0.0000   0.4047
  11.000   0.5997   0.10405   0.09514  -0.0898  0.6008  1.0000  -0.9041   0.0000   0.3865
  12.000   0.6641   0.11537   0.10631  -0.0905  0.5654  1.0000  -0.9737   0.0000   0.3718
  14.000   0.7220   0.13010   0.12098  -0.0895  0.4954  1.0000  -1.0483   0.0000   0.3569
  15.000   0.7484   0.13899   0.12996  -0.0905  0.4610  1.0000  -1.0842   0.0000   0.3526
  16.000   0.7600   0.14766   0.13877  -0.0927  0.4310  1.0000  -1.1035   0.0000   0.3525
  17.000   0.7877   0.15914   0.15050  -0.0966  0.4028  1.0000  -1.1507   0.0000   0.3518
  18.000   0.8244   0.17235   0.16388  -0.1013  0.3773  1.0000  -1.2108   0.0000   0.3506
  19.000   0.9153   0.20058   0.19236  -0.1060  0.3535  1.0000  -1.3652   0.0000   0.3415
  20.000   0.9278   0.20571   0.19772  -0.1106  0.3237  1.0000  -1.3719   0.0000   0.3434
  21.000   0.9268   0.21071   0.20312  -0.1197  0.3016  1.0000  -1.3121   0.0000   0.3520
  22.000   0.9603   0.22713   0.21979  -0.1269  0.2852  1.0000  -1.3242   0.0000   0.3533
  23.000   1.0092   0.24612   0.23908  -0.1323  0.2638  1.0000  -1.4051   0.0000   0.3501
  24.000   1.0177   0.25671   0.24987  -0.1430  0.2448  1.0000  -1.3628   0.0000   0.3578
  25.000   1.0759   0.29042   0.28392  -0.1468  0.2330  1.0000  -1.5087   0.0000   0.3513


