XFLR5 v6.09.05 beta

 Calculated polar for: -20S1223

 1 1 Reynolds number fixed          Mach number fixed         

 xtrf =   1.000 (top)        1.000 (bottom)
 Mach =   0.000     Re =     0.245 e 6     Ncrit =   9.000

  alpha     CL        CD       CDp       Cm    Top Xtr Bot Xtr   Cpmin    Chinge    XCp    
 ------- -------- --------- --------- -------- ------- ------- -------- --------- ---------
   0.000  -0.0307   0.06182   0.05689  -0.0656  0.5008  0.0292  -1.6534   0.0000  -1.8834
   1.000   0.0426   0.05045   0.04539  -0.0726  0.4821  0.0339  -1.4071   0.0000   1.9295
   2.000   0.1605   0.03403   0.02786  -0.0879  0.4657  0.0467  -1.5202   0.0000   0.7847
   3.000   0.2780   0.02614   0.01924  -0.0917  0.4495  0.0578  -1.2148   0.0000   0.5681
   4.000   0.4091   0.01754   0.00898  -0.0915  0.4367  0.0333  -1.3252   0.0000   0.4625
   5.000   0.5233   0.01723   0.00855  -0.0910  0.4220  0.0445  -1.1407   0.0000   0.4119
   6.000   0.6429   0.01564   0.00794  -0.0918  0.4130  0.3632  -1.2557   0.0000   0.3801
   8.000   0.7981   0.01841   0.01167  -0.0712  0.3946  0.8655  -1.4522   0.0000   0.3241
   9.000   0.8916   0.02069   0.01394  -0.0666  0.3843  0.8844  -1.5736   0.0000   0.3083
  10.000   0.9726   0.02105   0.01445  -0.0598  0.3754  0.8961  -1.7004   0.0000   0.2937
  11.000   1.0653   0.02187   0.01533  -0.0556  0.3648  0.9117  -1.8639   0.0000   0.2829
  12.000   1.1524   0.02350   0.01703  -0.0518  0.3525  0.9210  -2.0334   0.0000   0.2741
  13.000   1.2723   0.02486   0.01864  -0.0558  0.3403  0.9150  -2.2850   0.0000   0.2712
  14.000   1.3871   0.02472   0.01855  -0.0578  0.3261  0.9114  -2.6409   0.0000   0.2670
  16.000   1.6041   0.02537   0.01967  -0.0619  0.2889  0.9040  -3.3815   0.0000   0.2596
  17.000   1.7059   0.02600   0.02061  -0.0640  0.2655  0.9012  -3.8074   0.0000   0.2561
  18.000   1.7824   0.02898   0.02383  -0.0651  0.2332  0.8999  -4.1856   0.0000   0.2527
  19.000   1.7675   0.04053   0.03587  -0.0676  0.2022  0.9021  -4.3183   0.0000   0.2520
  20.000   1.6961   0.05997   0.05553  -0.0731  0.1755  0.9044  -4.2758   0.0000   0.2545
  21.000   1.6374   0.08021   0.07594  -0.0797  0.1510  0.9051  -4.2446   0.0000   0.2578
  22.000   1.5983   0.09922   0.09508  -0.0870  0.1285  0.9054  -4.2525   0.0000   0.2612
  23.000   1.5705   0.11765   0.11361  -0.0954  0.1087  0.9055  -4.3151   0.0000   0.2651
  24.000   1.5545   0.13487   0.13089  -0.1046  0.0912  0.9059  -4.4441   0.0000   0.2692
  25.000   1.5355   0.15345   0.14980  -0.1159  0.0799  0.9062  -4.6276   0.0000   0.2750


