XFLR5 v6.09.05 beta

 Calculated polar for: -20S1223

 1 1 Reynolds number fixed          Mach number fixed         

 xtrf =   1.000 (top)        1.000 (bottom)
 Mach =   0.000     Re =     0.215 e 6     Ncrit =   9.000

  alpha     CL        CD       CDp       Cm    Top Xtr Bot Xtr   Cpmin    Chinge    XCp    
 ------- -------- --------- --------- -------- ------- ------- -------- --------- ---------
   0.000  -0.0395   0.06561   0.06072  -0.0567  0.5092  0.0338  -1.3328   0.0000  -1.1832
   1.000   0.0576   0.05269   0.04736  -0.0751  0.4902  0.0433  -1.3871   0.0000   1.5371
   2.000   0.1502   0.03811   0.03237  -0.0846  0.4744  0.0518  -1.2958   0.0000   0.8000
   3.000   0.2713   0.02853   0.02173  -0.0913  0.4563  0.0754  -1.1047   0.0000   0.5746
   4.000   0.4070   0.01887   0.01023  -0.0915  0.4455  0.0367  -1.2911   0.0000   0.4637
   5.000   0.5207   0.01743   0.00868  -0.0905  0.4331  0.0485  -1.1336   0.0000   0.4120
   6.000   0.6361   0.01697   0.00917  -0.0907  0.4199  0.3841  -1.2428   0.0000   0.3799
   7.000   0.7161   0.01873   0.01197  -0.0807  0.4114  0.8488  -1.3361   0.0000   0.3490
   8.000   0.7823   0.02025   0.01351  -0.0680  0.4022  0.8832  -1.4285   0.0000   0.3219
   9.000   0.8558   0.02080   0.01388  -0.0582  0.3921  0.9031  -1.5397   0.0000   0.3017
  10.000   0.9506   0.02318   0.01643  -0.0557  0.3823  0.9134  -1.6711   0.0000   0.2909
  11.000   1.0243   0.02376   0.01726  -0.0481  0.3713  0.9286  -1.8111   0.0000   0.2778
  12.000   1.1244   0.02429   0.01769  -0.0461  0.3599  0.9381  -1.9968   0.0000   0.2702
  13.000   1.2264   0.02678   0.02048  -0.0476  0.3466  0.9326  -2.2136   0.0000   0.2664
  14.000   1.3437   0.02723   0.02120  -0.0509  0.3319  0.9273  -2.5533   0.0000   0.2634
  15.000   1.4553   0.02859   0.02275  -0.0541  0.3159  0.9229  -2.9137   0.0000   0.2606
  16.000   1.5781   0.02734   0.02158  -0.0578  0.2949  0.9194  -3.3224   0.0000   0.2577
  17.000   1.6742   0.02855   0.02325  -0.0596  0.2720  0.9174  -3.7238   0.0000   0.2544
  18.000   1.7484   0.03112   0.02614  -0.0604  0.2434  0.9175  -4.0940   0.0000   0.2509
  19.000   1.7345   0.04227   0.03762  -0.0635  0.2130  0.9211  -4.2268   0.0000   0.2505
  20.000   1.6728   0.06056   0.05601  -0.0691  0.1841  0.9222  -4.2100   0.0000   0.2528
  21.000   1.6289   0.07858   0.07408  -0.0751  0.1563  0.9219  -4.2226   0.0000   0.2553
  22.000   1.5978   0.09631   0.09194  -0.0820  0.1334  0.9212  -4.2541   0.0000   0.2581
  23.000   1.5602   0.11673   0.11273  -0.0915  0.1174  0.9206  -4.2697   0.0000   0.2632
  24.000   1.5361   0.13553   0.13186  -0.1015  0.1024  0.9201  -4.3461   0.0000   0.2682
  25.000   1.5238   0.15251   0.14900  -0.1121  0.0885  0.9198  -4.5435   0.0000   0.2732


