XFLR5 v6.09.05 beta

 Calculated polar for: -20S1223

 1 1 Reynolds number fixed          Mach number fixed         

 xtrf =   1.000 (top)        1.000 (bottom)
 Mach =   0.000     Re =     0.115 e 6     Ncrit =   9.000

  alpha     CL        CD       CDp       Cm    Top Xtr Bot Xtr   Cpmin    Chinge    XCp    
 ------- -------- --------- --------- -------- ------- ------- -------- --------- ---------
   0.000  -0.0296   0.07271   0.06746  -0.0566  0.5606  0.0733  -1.0861   0.0000  -1.6688
   1.000   0.0404   0.06035   0.05499  -0.0720  0.5416  0.0903  -1.1162   0.0000   2.0173
   2.000   0.1252   0.05083   0.04519  -0.0779  0.5258  0.1199  -0.9707   0.0000   0.8598
   3.000   0.2271   0.04270   0.03678  -0.0830  0.5070  0.1779  -0.8755   0.0000   0.6042
   4.000   0.3887   0.02706   0.01807  -0.0920  0.4946  0.0697  -1.1632   0.0000   0.4765
   5.000   0.4911   0.02654   0.01766  -0.0894  0.4804  0.0743  -1.0503   0.0000   0.4213
   6.000   0.5822   0.02609   0.01858  -0.0836  0.4662  0.4934  -1.1391   0.0000   0.3819
   7.000   0.5873   0.02905   0.02213  -0.0567  0.4571  0.9213  -1.1775   0.0000   0.3334
   8.000   0.7187   0.03428   0.02756  -0.0660  0.4384  0.9992  -1.2743   0.0000   0.3284
   9.000   0.7943   0.03662   0.02964  -0.0602  0.4279  1.0000  -1.3805   0.0000   0.3109
  11.000   0.7984   0.05835   0.05172  -0.0534  0.3922  1.0000  -1.3777   0.0000   0.3000
  12.000   0.7398   0.07848   0.07208  -0.0631  0.3681  1.0000  -1.2389   0.0000   0.3181
  13.000   0.9045   0.07376   0.06723  -0.0548  0.3547  1.0000  -1.5668   0.0000   0.2907
  15.000   0.8623   0.10635   0.10017  -0.0698  0.2999  1.0000  -1.4557   0.0000   0.3094
  16.000   0.8859   0.11791   0.11186  -0.0737  0.2746  1.0000  -1.5248   0.0000   0.3102
  17.000   1.0134   0.11537   0.10935  -0.0688  0.2614  1.0000  -1.9278   0.0000   0.2915
  18.000   1.0174   0.12896   0.12332  -0.0754  0.2355  1.0000  -1.9548   0.0000   0.2963
  19.000   1.0282   0.14243   0.13701  -0.0818  0.2098  1.0000  -1.9875   0.0000   0.3002
  20.000   1.0355   0.15791   0.15269  -0.0898  0.1854  1.0000  -1.9989   0.0000   0.3060
  21.000   1.0293   0.17790   0.17289  -0.1010  0.1639  1.0000  -1.9081   0.0000   0.3165
  22.000   1.0435   0.19532   0.19049  -0.1107  0.1514  1.0000  -1.8554   0.0000   0.3231
  23.000   1.0483   0.21961   0.21500  -0.1227  0.1536  1.0000  -1.7113   0.0000   0.3334


