XFLR5 v6.09.05 beta

 Calculated polar for: -20S1223

 1 1 Reynolds number fixed          Mach number fixed         

 xtrf =   1.000 (top)        1.000 (bottom)
 Mach =   0.000     Re =     0.170 e 6     Ncrit =   9.000

  alpha     CL        CD       CDp       Cm    Top Xtr Bot Xtr   Cpmin    Chinge    XCp    
 ------- -------- --------- --------- -------- ------- ------- -------- --------- ---------
   0.000  -0.0230   0.06639   0.06112  -0.0677  0.5280  0.0451  -1.4700   0.0000  -2.6861
   1.000   0.0401   0.05513   0.04988  -0.0701  0.5087  0.0534  -1.2145   0.0000   1.9757
   2.000   0.1448   0.04200   0.03612  -0.0834  0.4915  0.0705  -1.1718   0.0000   0.8127
   3.000   0.2617   0.03312   0.02657  -0.0895  0.4749  0.1054  -0.9883   0.0000   0.5801
   4.000   0.4031   0.02161   0.01263  -0.0913  0.4618  0.0434  -1.2358   0.0000   0.4655
   5.000   0.5129   0.02009   0.01122  -0.0899  0.4499  0.0572  -1.1112   0.0000   0.4138
   6.000   0.6200   0.01915   0.01142  -0.0877  0.4363  0.4180  -1.2135   0.0000   0.3790
   7.000   0.6727   0.02097   0.01400  -0.0707  0.4269  0.8733  -1.2912   0.0000   0.3414
   8.000   0.7236   0.02310   0.01621  -0.0560  0.4179  0.9189  -1.3619   0.0000   0.3126
   9.000   0.7966   0.02446   0.01765  -0.0478  0.4060  0.9412  -1.4634   0.0000   0.2940
  10.000   0.8796   0.02548   0.01862  -0.0424  0.3958  0.9537  -1.5871   0.0000   0.2808
  11.000   0.9529   0.02817   0.02141  -0.0369  0.3840  0.9703  -1.7153   0.0000   0.2699
  12.000   1.0294   0.03099   0.02463  -0.0343  0.3688  0.9809  -1.8530   0.0000   0.2632
  13.000   1.1503   0.03106   0.02451  -0.0362  0.3575  0.9743  -2.0934   0.0000   0.2594
  14.000   1.1986   0.03933   0.03349  -0.0383  0.3369  0.9723  -2.2488   0.0000   0.2583
  15.000   1.3623   0.03451   0.02854  -0.0413  0.3258  0.9652  -2.7178   0.0000   0.2543
  16.000   1.3787   0.04385   0.03861  -0.0439  0.3021  0.9653  -2.8659   0.0000   0.2539
  17.000   1.5531   0.03621   0.03093  -0.0449  0.2850  0.9615  -3.4199   0.0000   0.2483
  18.000   1.6484   0.03609   0.03090  -0.0464  0.2603  0.9606  -3.8370   0.0000   0.2450
  19.000   1.6471   0.04674   0.04188  -0.0526  0.2322  0.9607  -3.9898   0.0000   0.2463
  21.000   1.5287   0.08680   0.08246  -0.0688  0.1754  0.9575  -3.9102   0.0000   0.2548
  22.000   1.4925   0.10609   0.10201  -0.0773  0.1503  0.9556  -3.8999   0.0000   0.2594
  23.000   1.4797   0.12270   0.11880  -0.0852  0.1304  0.9541  -3.9659   0.0000   0.2629
  24.000   1.3310   0.16593   0.16251  -0.1080  0.1124  0.9521  -3.3863   0.0000   0.2865


