XFLR5 v6.09.05 beta

 Calculated polar for: -20S1223

 1 1 Reynolds number fixed          Mach number fixed         

 xtrf =   1.000 (top)        1.000 (bottom)
 Mach =   0.000     Re =     0.350 e 6     Ncrit =   9.000

  alpha     CL        CD       CDp       Cm    Top Xtr Bot Xtr   Cpmin    Chinge    XCp    
 ------- -------- --------- --------- -------- ------- ------- -------- --------- ---------
   0.000  -0.0420   0.06250   0.05800  -0.0575  0.4764  0.0207  -1.4792   0.0000  -1.1162
   1.000   0.0466   0.04780   0.04293  -0.0742  0.4563  0.0239  -1.5328   0.0000   1.8210
   2.000   0.1698   0.03423   0.02847  -0.0862  0.4432  0.0282  -1.5992   0.0000   0.7449
   3.000   0.2895   0.02375   0.01671  -0.0910  0.4255  0.0282  -1.4475   0.0000   0.5528
   4.000   0.4153   0.01574   0.00766  -0.0924  0.4157  0.0268  -1.3474   0.0000   0.4611
   5.000   0.5317   0.01419   0.00605  -0.0923  0.4048  0.0379  -1.1613   0.0000   0.4114
   6.000   0.6541   0.01326   0.00567  -0.0937  0.3915  0.3070  -1.2817   0.0000   0.3804
   7.000   0.7698   0.01421   0.00777  -0.0935  0.3836  0.8117  -1.3991   0.0000   0.3575
   8.000   0.8497   0.01560   0.00927  -0.0838  0.3766  0.8294  -1.5065   0.0000   0.3334
   9.000   0.9444   0.01687   0.01046  -0.0785  0.3672  0.8473  -1.6360   0.0000   0.3165
  10.000   1.0406   0.01815   0.01170  -0.0751  0.3543  0.8572  -1.7785   0.0000   0.3042
  11.000   1.1280   0.01854   0.01233  -0.0693  0.3484  0.8696  -1.9419   0.0000   0.2918
  12.000   1.2267   0.01922   0.01309  -0.0665  0.3375  0.8867  -2.1392   0.0000   0.2830
  13.000   1.3374   0.02044   0.01427  -0.0679  0.3232  0.8821  -2.4075   0.0000   0.2777
  14.000   1.4489   0.02047   0.01471  -0.0698  0.3124  0.8779  -2.7642   0.0000   0.2732
  15.000   1.5610   0.02061   0.01478  -0.0720  0.2909  0.8737  -3.1411   0.0000   0.2690
  16.000   1.6730   0.02099   0.01562  -0.0750  0.2735  0.8696  -3.5442   0.0000   0.2654
  17.000   1.7766   0.02238   0.01721  -0.0775  0.2454  0.8659  -3.9826   0.0000   0.2619
  18.000   1.8532   0.02645   0.02138  -0.0791  0.1985  0.8631  -4.3682   0.0000   0.2586
  19.000   1.8068   0.04149   0.03661  -0.0801  0.1626  0.8616  -4.4236   0.0000   0.2579
  20.000   1.7224   0.06287   0.05828  -0.0849  0.1423  0.8616  -4.3481   0.0000   0.2605
  21.000   1.6531   0.08508   0.08069  -0.0916  0.1213  0.8620  -4.2908   0.0000   0.2645
  22.000   1.6056   0.10565   0.10139  -0.0992  0.1013  0.8627  -4.2785   0.0000   0.2686
  23.000   1.5811   0.12375   0.11968  -0.1070  0.0866  0.8643  -4.3518   0.0000   0.2721
  24.000   1.5640   0.14099   0.13701  -0.1157  0.0741  0.8666  -4.4708   0.0000   0.2759
  25.000   1.5647   0.15553   0.15191  -0.1241  0.0673  0.8696  -4.7939   0.0000   0.2787


