XFLR5 v6.09.05 beta

 Calculated polar for: -20S1223

 1 1 Reynolds number fixed          Mach number fixed         

 xtrf =   1.000 (top)        1.000 (bottom)
 Mach =   0.000     Re =     0.260 e 6     Ncrit =   9.000

  alpha     CL        CD       CDp       Cm    Top Xtr Bot Xtr   Cpmin    Chinge    XCp    
 ------- -------- --------- --------- -------- ------- ------- -------- --------- ---------
   0.000  -0.0188   0.06555   0.06059  -0.0634  0.4926  0.0282  -1.4950   0.0000  -3.1051
   1.000   0.0466   0.04815   0.04308  -0.0754  0.4786  0.0317  -1.5353   0.0000   1.8448
   2.000   0.1644   0.03790   0.03191  -0.0855  0.4585  0.0439  -1.4080   0.0000   0.7568
   3.000   0.2788   0.02538   0.01855  -0.0919  0.4457  0.0555  -1.2249   0.0000   0.5679
   4.000   0.4100   0.01708   0.00854  -0.0915  0.4329  0.0318  -1.3398   0.0000   0.4619
   5.000   0.5248   0.01660   0.00801  -0.0912  0.4200  0.0437  -1.1446   0.0000   0.4118
   6.000   0.6452   0.01512   0.00746  -0.0922  0.4095  0.3544  -1.2609   0.0000   0.3801
   7.000   0.7338   0.01628   0.00964  -0.0845  0.3999  0.8304  -1.3618   0.0000   0.3513
   8.000   0.8110   0.01832   0.01157  -0.0745  0.3897  0.8583  -1.4637   0.0000   0.3268
   9.000   0.8941   0.01963   0.01298  -0.0670  0.3819  0.8785  -1.5794   0.0000   0.3085
  10.000   0.9932   0.02048   0.01390  -0.0643  0.3720  0.8884  -1.7227   0.0000   0.2969
  11.000   1.0741   0.02084   0.01430  -0.0571  0.3621  0.9040  -1.8774   0.0000   0.2838
  12.000   1.1713   0.02303   0.01663  -0.0554  0.3503  0.9146  -2.0593   0.0000   0.2763
  13.000   1.2795   0.02345   0.01726  -0.0566  0.3380  0.9101  -2.2993   0.0000   0.2715
  14.000   1.3919   0.02458   0.01845  -0.0589  0.3216  0.9053  -2.6507   0.0000   0.2676
  15.000   1.5046   0.02450   0.01873  -0.0616  0.3074  0.9006  -3.0208   0.0000   0.2641
  16.000   1.6190   0.02452   0.01892  -0.0648  0.2867  0.8965  -3.4138   0.0000   0.2609
  17.000   1.7230   0.02537   0.01993  -0.0673  0.2612  0.8934  -3.8486   0.0000   0.2576
  18.000   1.8022   0.02848   0.02344  -0.0689  0.2290  0.8918  -4.2336   0.0000   0.2544
  19.000   1.7849   0.04007   0.03543  -0.0706  0.1965  0.8932  -4.3637   0.0000   0.2533
  20.000   1.7087   0.05984   0.05542  -0.0755  0.1712  0.8955  -4.3097   0.0000   0.2556
  21.000   1.6455   0.08062   0.07637  -0.0821  0.1470  0.8966  -4.2675   0.0000   0.2590
  22.000   1.5990   0.10081   0.09671  -0.0899  0.1248  0.8972  -4.2529   0.0000   0.2630
  23.000   1.5676   0.11997   0.11600  -0.0985  0.1053  0.8978  -4.3032   0.0000   0.2673
  24.000   1.5520   0.13719   0.13331  -0.1076  0.0887  0.8985  -4.4299   0.0000   0.2713
  25.000   1.5433   0.15346   0.14971  -0.1174  0.0765  0.8992  -4.6747   0.0000   0.2755


