XFLR5 v6.09.05 beta

 Calculated polar for: -20S1223

 1 1 Reynolds number fixed          Mach number fixed         

 xtrf =   1.000 (top)        1.000 (bottom)
 Mach =   0.000     Re =     0.300 e 6     Ncrit =   9.000

  alpha     CL        CD       CDp       Cm    Top Xtr Bot Xtr   Cpmin    Chinge    XCp    
 ------- -------- --------- --------- -------- ------- ------- -------- --------- ---------
   0.000  -0.0377   0.06367   0.05900  -0.0581  0.4857  0.0255  -1.4423   0.0000  -1.2876
   1.000   0.0648   0.04921   0.04412  -0.0765  0.4682  0.0282  -1.5739   0.0000   1.4127
   2.000   0.1593   0.03257   0.02681  -0.0873  0.4522  0.0338  -1.5506   0.0000   0.7849
   3.000   0.2835   0.02337   0.01642  -0.0925  0.4370  0.0493  -1.3117   0.0000   0.5645
   4.000   0.4131   0.01739   0.00904  -0.0921  0.4214  0.0285  -1.3049   0.0000   0.4615
   5.000   0.5282   0.01529   0.00696  -0.0917  0.4132  0.0413  -1.1529   0.0000   0.4116
   6.000   0.6500   0.01398   0.00639  -0.0929  0.4015  0.3333  -1.2726   0.0000   0.3801
   7.000   0.7529   0.01533   0.00870  -0.0894  0.3898  0.8204  -1.3814   0.0000   0.3548
   8.000   0.8323   0.01727   0.01074  -0.0796  0.3835  0.8445  -1.4859   0.0000   0.3305
   9.000   0.9167   0.01796   0.01148  -0.0721  0.3747  0.8617  -1.6056   0.0000   0.3121
  10.000   1.0111   0.01870   0.01218  -0.0677  0.3652  0.8742  -1.7483   0.0000   0.2990
  11.000   1.1121   0.02079   0.01434  -0.0661  0.3530  0.8857  -1.9187   0.0000   0.2899
  12.000   1.1861   0.02055   0.01434  -0.0578  0.3446  0.9020  -2.0846   0.0000   0.2776
  13.000   1.3092   0.02106   0.01487  -0.0620  0.3323  0.8954  -2.3560   0.0000   0.2744
  14.000   1.4304   0.02238   0.01643  -0.0666  0.3176  0.8892  -2.7247   0.0000   0.2717
  15.000   1.5454   0.02242   0.01660  -0.0691  0.3001  0.8847  -3.1059   0.0000   0.2677
  16.000   1.6500   0.02298   0.01752  -0.0706  0.2804  0.8821  -3.4875   0.0000   0.2635
  17.000   1.7496   0.02398   0.01876  -0.0722  0.2548  0.8798  -3.9152   0.0000   0.2596
  18.000   1.8280   0.02719   0.02223  -0.0733  0.2174  0.8779  -4.3030   0.0000   0.2561
  19.000   1.7962   0.04035   0.03556  -0.0745  0.1824  0.8774  -4.3965   0.0000   0.2551
  20.000   1.7136   0.06121   0.05666  -0.0795  0.1586  0.8780  -4.3254   0.0000   0.2577
  21.000   1.6469   0.08276   0.07835  -0.0863  0.1346  0.8787  -4.2746   0.0000   0.2614
  22.000   1.5981   0.10346   0.09917  -0.0942  0.1124  0.8795  -4.2553   0.0000   0.2657
  23.000   1.5654   0.12305   0.11890  -0.1030  0.0943  0.8806  -4.2993   0.0000   0.2703
  24.000   1.5535   0.13982   0.13594  -0.1118  0.0817  0.8818  -4.4352   0.0000   0.2740
  25.000   1.5557   0.15386   0.15015  -0.1201  0.0720  0.8829  -4.7448   0.0000   0.2766


