XFLR5 v6.09.05 beta

 Calculated polar for: -20S1223

 1 1 Reynolds number fixed          Mach number fixed         

 xtrf =   1.000 (top)        1.000 (bottom)
 Mach =   0.000     Re =     0.075 e 6     Ncrit =   9.000

  alpha     CL        CD       CDp       Cm    Top Xtr Bot Xtr   Cpmin    Chinge    XCp    
 ------- -------- --------- --------- -------- ------- ------- -------- --------- ---------
   0.000  -0.0207   0.08635   0.08082  -0.0702  0.6049  0.1372  -1.0737   0.0000  -3.1723
   1.000   0.0338   0.07437   0.06905  -0.0739  0.5858  0.1689  -0.9891   0.0000   2.4355
   2.000   0.0937   0.06350   0.05822  -0.0717  0.5704  0.2076  -0.8643   0.0000   1.0073
   3.000   0.1763   0.05629   0.05092  -0.0776  0.5525  0.2470  -0.8104   0.0000   0.6812
   4.000   0.3561   0.03983   0.03141  -0.0979  0.5387  0.0942  -1.1597   0.0000   0.5168
   5.000   0.4487   0.03956   0.03056  -0.0927  0.5273  0.1004  -0.9409   0.0000   0.4475
   6.000   0.5116   0.04460   0.03720  -0.0927  0.5132  0.4480  -0.9570   0.0000   0.4217
   8.000   0.5247   0.06190   0.05519  -0.0749  0.5321  1.0000  -0.9273   0.0000   0.3818
  10.000   0.5543   0.08212   0.07499  -0.0781  0.5338  1.0000  -0.9041   0.0000   0.3784
  11.000   0.5901   0.08939   0.08207  -0.0775  0.5004  1.0000  -0.9340   0.0000   0.3676
  12.000   0.6195   0.09821   0.09080  -0.0782  0.4710  1.0000  -0.9569   0.0000   0.3614
  13.000   0.6617   0.10866   0.10119  -0.0798  0.4458  1.0000  -1.0035   0.0000   0.3545
  14.000   0.8060   0.12657   0.11904  -0.0814  0.4222  1.0000  -1.2277   0.0000   0.3330
  15.000   0.7817   0.13065   0.12323  -0.0834  0.3913  1.0000  -1.1822   0.0000   0.3376
  16.000   0.7904   0.14060   0.13340  -0.0867  0.3617  1.0000  -1.1960   0.0000   0.3394
  17.000   0.8078   0.15326   0.14621  -0.0917  0.3398  1.0000  -1.2245   0.0000   0.3421
  18.000   0.9074   0.17506   0.16818  -0.0944  0.3210  1.0000  -1.4362   0.0000   0.3305
  19.000   0.9564   0.18870   0.18202  -0.0976  0.2907  1.0000  -1.5311   0.0000   0.3265
  20.000   0.9174   0.19138   0.18487  -0.1077  0.2679  1.0000  -1.3843   0.0000   0.3411
  21.000   0.9398   0.20450   0.19837  -0.1162  0.2467  1.0000  -1.3771   0.0000   0.3459
  22.000   1.0242   0.23437   0.22853  -0.1179  0.2332  1.0000  -1.5532   0.0000   0.3348
  23.000   1.0119   0.23420   0.22849  -0.1304  0.2113  1.0000  -1.4500   0.0000   0.3472
  24.000   1.0418   0.25553   0.25003  -0.1383  0.2046  1.0000  -1.4756   0.0000   0.3491
  25.000   1.0652   0.26853   0.26326  -0.1476  0.1851  1.0000  -1.5045   0.0000   0.3529


