XFLR5 v6.09.05 beta

 Calculated polar for: -20S1223

 1 1 Reynolds number fixed          Mach number fixed         

 xtrf =   1.000 (top)        1.000 (bottom)
 Mach =   0.000     Re =     0.290 e 6     Ncrit =   9.000

  alpha     CL        CD       CDp       Cm    Top Xtr Bot Xtr   Cpmin    Chinge    XCp    
 ------- -------- --------- --------- -------- ------- ------- -------- --------- ---------
   0.000  -0.0303   0.06414   0.05939  -0.0602  0.4875  0.0272  -1.4727   0.0000  -1.7307
   1.000   0.0662   0.04912   0.04398  -0.0770  0.4707  0.0282  -1.5926   0.0000   1.3961
   2.000   0.1578   0.03357   0.02783  -0.0868  0.4537  0.0352  -1.4982   0.0000   0.7866
   3.000   0.2820   0.02380   0.01692  -0.0924  0.4390  0.0505  -1.2858   0.0000   0.5656
   4.000   0.4122   0.01710   0.00865  -0.0919  0.4238  0.0292  -1.3269   0.0000   0.4616
   5.000   0.5274   0.01556   0.00718  -0.0916  0.4150  0.0419  -1.1510   0.0000   0.4116
   6.000   0.6490   0.01423   0.00663  -0.0928  0.4033  0.3391  -1.2700   0.0000   0.3802
   8.000   0.8303   0.01775   0.01116  -0.0792  0.3847  0.8475  -1.4825   0.0000   0.3302
   9.000   0.9087   0.01830   0.01179  -0.0702  0.3765  0.8655  -1.5974   0.0000   0.3108
  10.000   1.0079   0.01916   0.01262  -0.0670  0.3668  0.8777  -1.7433   0.0000   0.2986
  11.000   1.1015   0.02095   0.01447  -0.0639  0.3538  0.8894  -1.9064   0.0000   0.2886
  12.000   1.1809   0.02102   0.01477  -0.0568  0.3460  0.9053  -2.0769   0.0000   0.2770
  13.000   1.2998   0.02152   0.01534  -0.0601  0.3337  0.8990  -2.3388   0.0000   0.2733
  14.000   1.4193   0.02275   0.01676  -0.0643  0.3188  0.8930  -2.7042   0.0000   0.2704
  15.000   1.5410   0.02265   0.01684  -0.0685  0.3016  0.8879  -3.0952   0.0000   0.2675
  16.000   1.6445   0.02359   0.01811  -0.0696  0.2818  0.8841  -3.4741   0.0000   0.2631
  17.000   1.7443   0.02445   0.01919  -0.0712  0.2565  0.8822  -3.9016   0.0000   0.2592
  18.000   1.8226   0.02754   0.02254  -0.0723  0.2202  0.8807  -4.2883   0.0000   0.2557
  19.000   1.7966   0.04003   0.03529  -0.0735  0.1863  0.8805  -4.3976   0.0000   0.2545
  20.000   1.7151   0.06065   0.05614  -0.0786  0.1621  0.8812  -4.3297   0.0000   0.2571
  21.000   1.6480   0.08215   0.07779  -0.0853  0.1382  0.8818  -4.2781   0.0000   0.2608
  22.000   1.5975   0.10310   0.09887  -0.0933  0.1163  0.8824  -4.2527   0.0000   0.2652
  23.000   1.5655   0.12243   0.11833  -0.1019  0.0974  0.8831  -4.3002   0.0000   0.2696
  24.000   1.5510   0.13952   0.13565  -0.1108  0.0832  0.8839  -4.4261   0.0000   0.2735
  25.000   1.5552   0.15369   0.14994  -0.1198  0.0727  0.8858  -4.7424   0.0000   0.2764


