XFLR5 v6.09.05 beta

 Calculated polar for: -20S1223

 1 1 Reynolds number fixed          Mach number fixed         

 xtrf =   1.000 (top)        1.000 (bottom)
 Mach =   0.000     Re =     0.255 e 6     Ncrit =   9.000

  alpha     CL        CD       CDp       Cm    Top Xtr Bot Xtr   Cpmin    Chinge    XCp    
 ------- -------- --------- --------- -------- ------- ------- -------- --------- ---------
   0.000  -0.0184   0.06559   0.06061  -0.0637  0.4944  0.0282  -1.5022   0.0000  -3.2009
   1.000   0.0449   0.04903   0.04397  -0.0743  0.4797  0.0323  -1.4851   0.0000   1.8810
   3.000   0.2893   0.02188   0.01419  -0.0917  0.4476  0.0255  -1.6416   0.0000   0.5558
   4.000   0.4097   0.01721   0.00867  -0.0915  0.4342  0.0323  -1.3358   0.0000   0.4621
   5.000   0.5244   0.01682   0.00820  -0.0911  0.4207  0.0439  -1.1434   0.0000   0.4118
   6.000   0.6445   0.01530   0.00761  -0.0921  0.4106  0.3564  -1.2592   0.0000   0.3801
   7.000   0.7314   0.01649   0.00985  -0.0840  0.4010  0.8321  -1.3588   0.0000   0.3509
   8.000   0.8066   0.01823   0.01148  -0.0733  0.3916  0.8606  -1.4605   0.0000   0.3258
   9.000   0.8931   0.01995   0.01326  -0.0668  0.3827  0.8807  -1.5774   0.0000   0.3084
  10.000   0.9859   0.02063   0.01404  -0.0627  0.3731  0.8908  -1.7149   0.0000   0.2958
  11.000   1.0706   0.02113   0.01458  -0.0565  0.3630  0.9066  -1.8725   0.0000   0.2834
  12.000   1.1674   0.02316   0.01674  -0.0548  0.3510  0.9163  -2.0534   0.0000   0.2760
  13.000   1.2770   0.02388   0.01768  -0.0563  0.3388  0.9118  -2.2945   0.0000   0.2714
  14.000   1.3910   0.02447   0.01831  -0.0586  0.3232  0.9074  -2.6492   0.0000   0.2674
  15.000   1.4995   0.02490   0.01914  -0.0607  0.3083  0.9029  -3.0098   0.0000   0.2637
  16.000   1.6135   0.02478   0.01915  -0.0637  0.2875  0.8990  -3.4014   0.0000   0.2604
  17.000   1.7171   0.02553   0.02009  -0.0661  0.2625  0.8959  -3.8348   0.0000   0.2570
  18.000   1.7951   0.02863   0.02357  -0.0676  0.2306  0.8943  -4.2166   0.0000   0.2538
  19.000   1.7791   0.04019   0.03555  -0.0695  0.1985  0.8960  -4.3486   0.0000   0.2528
  20.000   1.7043   0.05985   0.05544  -0.0746  0.1726  0.8984  -4.2981   0.0000   0.2552
  21.000   1.6428   0.08044   0.07619  -0.0812  0.1485  0.8994  -4.2599   0.0000   0.2585
  22.000   1.5986   0.10026   0.09616  -0.0889  0.1261  0.8999  -4.2525   0.0000   0.2624
  23.000   1.5680   0.11926   0.11528  -0.0975  0.1065  0.9003  -4.3051   0.0000   0.2666
  24.000   1.5528   0.13640   0.13249  -0.1066  0.0896  0.9009  -4.4350   0.0000   0.2706
  25.000   1.5400   0.15358   0.14985  -0.1170  0.0776  0.9015  -4.6552   0.0000   0.2754


