XFLR5 v6.09.05 beta

 Calculated polar for: -20S1223

 1 1 Reynolds number fixed          Mach number fixed         

 xtrf =   1.000 (top)        1.000 (bottom)
 Mach =   0.000     Re =     0.130 e 6     Ncrit =   9.000

  alpha     CL        CD       CDp       Cm    Top Xtr Bot Xtr   Cpmin    Chinge    XCp    
 ------- -------- --------- --------- -------- ------- ------- -------- --------- ---------
   0.000  -0.0115   0.07323   0.06786  -0.0694  0.5492  0.0634  -1.2971   0.0000  -5.7748
   1.000   0.0382   0.05915   0.05373  -0.0686  0.5315  0.0757  -1.1001   0.0000   2.0262
   2.000   0.1328   0.04821   0.04259  -0.0795  0.5138  0.1013  -1.0130   0.0000   0.8360
   3.000   0.2531   0.03590   0.02923  -0.0890  0.4975  0.1187  -0.9854   0.0000   0.5904
   4.000   0.3935   0.02563   0.01679  -0.0918  0.4839  0.0613  -1.1712   0.0000   0.4729
   5.000   0.5010   0.02369   0.01473  -0.0893  0.4700  0.0674  -1.0770   0.0000   0.4172
   6.000   0.5953   0.02378   0.01601  -0.0843  0.4565  0.4664  -1.1677   0.0000   0.3796
   7.000   0.6130   0.02650   0.01980  -0.0610  0.4468  0.9043  -1.2076   0.0000   0.3364
   8.000   0.6523   0.02831   0.02158  -0.0457  0.4351  0.9659  -1.2638   0.0000   0.3058
   9.000   0.8356   0.03063   0.02343  -0.0602  0.4213  0.9958  -1.4571   0.0000   0.3066
  10.000   0.8267   0.04093   0.03443  -0.0521  0.4006  1.0000  -1.4434   0.0000   0.2968
  11.000   0.9116   0.04114   0.03443  -0.0457  0.3924  1.0000  -1.5982   0.0000   0.2822
  13.000   0.9908   0.05830   0.05197  -0.0459  0.3545  1.0000  -1.7609   0.0000   0.2755
  14.000   0.9579   0.07680   0.07069  -0.0559  0.3243  1.0000  -1.6969   0.0000   0.2865
  16.000   0.9516   0.10571   0.09992  -0.0677  0.2686  1.0000  -1.7295   0.0000   0.2968
  17.000   0.9615   0.11963   0.11401  -0.0732  0.2439  1.0000  -1.7807   0.0000   0.3005
  18.000   1.0801   0.11531   0.10996  -0.0694  0.2340  1.0000  -2.1844   0.0000   0.2851
  19.000   1.0882   0.12842   0.12328  -0.0757  0.2084  1.0000  -2.2324   0.0000   0.2888
  20.000   1.0993   0.14231   0.13738  -0.0828  0.1836  1.0000  -2.2957   0.0000   0.2928
  21.000   1.0965   0.16056   0.15582  -0.0925  0.1602  1.0000  -2.2694   0.0000   0.3005
  22.000   1.0659   0.18722   0.18269  -0.1075  0.1403  1.0000  -2.0140   0.0000   0.3170
  23.000   1.0777   0.20606   0.20169  -0.1181  0.1285  1.0000  -1.9505   0.0000   0.3243
  24.000   1.1060   0.23000   0.22601  -0.1252  0.1336  1.0000  -1.9577   0.0000   0.3263


