XFLR5 v6.09.05 beta

 Calculated polar for: -20S1223

 1 1 Reynolds number fixed          Mach number fixed         

 xtrf =   1.000 (top)        1.000 (bottom)
 Mach =   0.000     Re =     0.070 e 6     Ncrit =   9.000

  alpha     CL        CD       CDp       Cm    Top Xtr Bot Xtr   Cpmin    Chinge    XCp    
 ------- -------- --------- --------- -------- ------- ------- -------- --------- ---------
   0.000  -0.0233   0.08203   0.07678  -0.0596  0.6128  0.1446  -0.9589   0.0000  -2.3426
   1.000   0.0231   0.07370   0.06849  -0.0644  0.5974  0.1763  -0.9103   0.0000   3.0383
   2.000   0.1071   0.07222   0.06672  -0.0767  0.5780  0.2355  -0.8616   0.0000   0.9598
   3.000   0.2401   0.04512   0.03755  -0.0943  0.5654  0.0784  -1.3488   0.0000   0.6353
   4.000   0.3477   0.04299   0.03475  -0.1004  0.5497  0.0998  -1.1544   0.0000   0.5310
   5.000   0.4413   0.04240   0.03349  -0.0967  0.5361  0.1050  -0.9471   0.0000   0.4604
   6.000   0.5099   0.04544   0.03803  -0.0914  0.5252  0.4964  -0.9591   0.0000   0.4198
   7.000   0.4980   0.05223   0.04573  -0.0755  0.5244  1.0000  -0.9326   0.0000   0.3914
   8.000   0.5461   0.06227   0.05516  -0.0744  0.5302  1.0000  -0.9583   0.0000   0.3752
   9.000   0.4722   0.07433   0.06746  -0.0793  0.5734  1.0000  -0.8115   0.0000   0.4068
  10.000   0.5111   0.08186   0.07462  -0.0785  0.5443  1.0000  -0.8449   0.0000   0.3914
  11.000   0.5619   0.09043   0.08293  -0.0787  0.5136  1.0000  -0.8891   0.0000   0.3765
  13.000   0.7164   0.11249   0.10469  -0.0813  0.4596  1.0000  -1.0835   0.0000   0.3472
  14.000   0.7232   0.12019   0.11244  -0.0823  0.4278  1.0000  -1.0832   0.0000   0.3463
  15.000   0.7387   0.13057   0.12293  -0.0851  0.3996  1.0000  -1.0938   0.0000   0.3466
  16.000   0.7702   0.14243   0.13500  -0.0885  0.3746  1.0000  -1.1447   0.0000   0.3449
  17.000   0.8912   0.16545   0.15813  -0.0913  0.3537  1.0000  -1.4002   0.0000   0.3303
  18.000   0.8846   0.16980   0.16267  -0.0949  0.3242  1.0000  -1.3866   0.0000   0.3339
  19.000   0.8835   0.17930   0.17236  -0.1019  0.2977  1.0000  -1.3396   0.0000   0.3408
  20.000   0.9036   0.19332   0.18657  -0.1099  0.2813  1.0000  -1.3279   0.0000   0.3457
  21.000   0.9712   0.21566   0.20935  -0.1131  0.2605  1.0000  -1.4688   0.0000   0.3383
  22.000   0.9832   0.22096   0.21484  -0.1225  0.2375  1.0000  -1.4243   0.0000   0.3448
  23.000   0.9977   0.23590   0.22996  -0.1331  0.2215  1.0000  -1.3799   0.0000   0.3522
  24.000   1.0718   0.26413   0.25852  -0.1346  0.2070  1.0000  -1.5885   0.0000   0.3416
  25.000   1.0530   0.26984   0.26434  -0.1500  0.1926  1.0000  -1.4351   0.0000   0.3572


