XFLR5 v6.09.05 beta

 Calculated polar for: -20S1223

 1 1 Reynolds number fixed          Mach number fixed         

 xtrf =   1.000 (top)        1.000 (bottom)
 Mach =   0.000     Re =     0.135 e 6     Ncrit =   9.000

  alpha     CL        CD       CDp       Cm    Top Xtr Bot Xtr   Cpmin    Chinge    XCp    
 ------- -------- --------- --------- -------- ------- ------- -------- --------- ---------
   0.000  -0.0159   0.07225   0.06696  -0.0667  0.5458  0.0629  -1.2682   0.0000  -3.9409
   1.000   0.0388   0.05829   0.05287  -0.0695  0.5281  0.0716  -1.1310   0.0000   2.0223
   2.000   0.1340   0.04701   0.04138  -0.0801  0.5105  0.0958  -1.0334   0.0000   0.8350
   3.000   0.2414   0.03874   0.03244  -0.0858  0.4929  0.1482  -0.8951   0.0000   0.5936
   4.000   0.3948   0.02473   0.01592  -0.0918  0.4805  0.0586  -1.1841   0.0000   0.4720
   5.000   0.5038   0.02296   0.01395  -0.0893  0.4671  0.0654  -1.0851   0.0000   0.4161
   6.000   0.5991   0.02302   0.01528  -0.0848  0.4541  0.4573  -1.1735   0.0000   0.3795
   7.000   0.6217   0.02558   0.01888  -0.0622  0.4436  0.8993  -1.2198   0.0000   0.3369
   8.000   0.6629   0.02682   0.02003  -0.0462  0.4330  0.9599  -1.2827   0.0000   0.3053
   9.000   0.7994   0.02935   0.02227  -0.0520  0.4200  0.9879  -1.4325   0.0000   0.2995
  10.000   0.8747   0.03628   0.02967  -0.0541  0.4014  1.0000  -1.5160   0.0000   0.2954
  11.000   0.9528   0.03707   0.03027  -0.0476  0.3923  1.0000  -1.6626   0.0000   0.2818
  12.000   0.8724   0.05881   0.05261  -0.0504  0.3608  1.0000  -1.5219   0.0000   0.2890
  13.000   1.0250   0.05214   0.04585  -0.0435  0.3559  1.0000  -1.8323   0.0000   0.2713
  17.000   0.9780   0.11625   0.11071  -0.0717  0.2428  1.0000  -1.8369   0.0000   0.2973
  18.000   1.0882   0.11316   0.10790  -0.0686  0.2329  1.0000  -2.2160   0.0000   0.2838
  20.000   1.1180   0.13794   0.13309  -0.0811  0.1837  1.0000  -2.3782   0.0000   0.2895
  21.000   1.1142   0.15603   0.15139  -0.0905  0.1600  1.0000  -2.3606   0.0000   0.2969
  22.000   1.0877   0.18116   0.17671  -0.1045  0.1388  1.0000  -2.1504   0.0000   0.3113
  23.000   1.0737   0.20663   0.20234  -0.1189  0.1259  1.0000  -1.9284   0.0000   0.3256
  24.000   1.0891   0.23111   0.22716  -0.1288  0.1318  1.0000  -1.8529   0.0000   0.3319
  25.000   1.1092   0.25466   0.25095  -0.1391  0.1350  1.0000  -1.8199   0.0000   0.3376


