XFLR5 v6.09.05 beta

 Calculated polar for: -20S1223

 1 1 Reynolds number fixed          Mach number fixed         

 xtrf =   1.000 (top)        1.000 (bottom)
 Mach =   0.000     Re =     0.005 e 6     Ncrit =   9.000

  alpha     CL        CD       CDp       Cm    Top Xtr Bot Xtr   Cpmin    Chinge    XCp    
 ------- -------- --------- --------- -------- ------- ------- -------- --------- ---------
   0.000   0.0714   0.08511   0.06922  -0.0292  1.0000  1.0000  -0.9483   0.0000   0.6706
   1.000   0.0516   0.08450   0.06948  -0.0265  1.0000  1.0000  -1.0058   0.0000   0.7739
   2.000   0.0172   0.08443   0.06996  -0.0214  1.0000  1.0000  -1.0852   0.0000   1.5173
   3.000  -0.0176   0.08314   0.06913  -0.0168  1.0000  1.0000  -1.1706   0.0000  -0.7185
   4.000  -0.0551   0.08053   0.06699  -0.0124  1.0000  1.0000  -1.2641   0.0000   0.0205
   5.000  -0.0998   0.07634   0.06334  -0.0076  1.0000  1.0000  -1.3669   0.0000   0.1714
   6.000  -0.1314   0.07034   0.05747  -0.0085  1.0000  1.0000  -1.4843   0.0000   0.1833
   7.000   0.0544   0.07432   0.05398  -0.0477  1.0000  1.0000  -1.5387   0.0000   1.1072
   8.000   0.1281   0.07994   0.05568  -0.0509  1.0000  1.0000  -1.3098   0.0000   0.6315
   9.000   0.1904   0.08603   0.05926  -0.0525  1.0000  1.0000  -1.0344   0.0000   0.5112
  10.000   0.2488   0.09273   0.06400  -0.0543  1.0000  1.0000  -0.7561   0.0000   0.4533
  11.000   0.3045   0.10005   0.07002  -0.0564  1.0000  1.0000  -0.6666   0.0000   0.4198
  12.000   0.3580   0.10798   0.07705  -0.0590  1.0000  1.0000  -0.6999   0.0000   0.3985
  13.000   0.4095   0.11650   0.08501  -0.0620  1.0000  1.0000  -0.7390   0.0000   0.3843
  14.000   0.4593   0.12564   0.09386  -0.0656  1.0000  1.0000  -0.7774   0.0000   0.3748
  15.000   0.5074   0.13540   0.10348  -0.0698  1.0000  1.0000  -0.8193   0.0000   0.3683
  16.000   0.5537   0.14577   0.11393  -0.0745  1.0000  1.0000  -0.8662   0.0000   0.3642
  17.000   0.5984   0.15679   0.12523  -0.0798  1.0000  1.0000  -0.9128   0.0000   0.3618
  18.000   0.6414   0.16852   0.13767  -0.0857  1.0000  1.0000  -0.9641   0.0000   0.3607
  19.000   0.6830   0.18101   0.15063  -0.0921  1.0000  1.0000  -1.0118   0.0000   0.3605
  20.000   0.7230   0.19430   0.16449  -0.0990  1.0000  1.0000  -1.0610   0.0000   0.3611
  21.000   0.7616   0.20841   0.17925  -0.1064  1.0000  1.0000  -1.0947   0.0000   0.3622
  22.000   0.7989   0.22333   0.19490  -0.1141  1.0000  1.0000  -1.1242   0.0000   0.3637
  23.000   0.8350   0.23894   0.21192  -0.1221  1.0000  1.0000  -1.1582   0.0000   0.3653
  24.000   0.8696   0.25539   0.22918  -0.1304  1.0000  1.0000  -1.1776   0.0000   0.3671
  25.000   0.9026   0.27281   0.24744  -0.1389  1.0000  1.0000  -1.2039   0.0000   0.3691


