XFLR5 v6.09.05 beta

 Calculated polar for: -20S1223

 1 1 Reynolds number fixed          Mach number fixed         

 xtrf =   1.000 (top)        1.000 (bottom)
 Mach =   0.000     Re =     0.145 e 6     Ncrit =   9.000

  alpha     CL        CD       CDp       Cm    Top Xtr Bot Xtr   Cpmin    Chinge    XCp    
 ------- -------- --------- --------- -------- ------- ------- -------- --------- ---------
   0.000  -0.0331   0.06974   0.06458  -0.0561  0.5399  0.0550  -1.1632   0.0000  -1.4448
   1.000   0.0461   0.05558   0.05014  -0.0747  0.5229  0.0669  -1.2560   0.0000   1.8525
   2.000   0.1421   0.04435   0.03851  -0.0833  0.5049  0.0904  -1.1137   0.0000   0.8231
   4.000   0.3976   0.02325   0.01442  -0.0916  0.4743  0.0532  -1.2112   0.0000   0.4698
   5.000   0.5080   0.02188   0.01278  -0.0894  0.4616  0.0626  -1.0979   0.0000   0.4147
   6.000   0.6055   0.02178   0.01407  -0.0856  0.4486  0.4424  -1.1850   0.0000   0.3793
   7.000   0.6404   0.02396   0.01720  -0.0652  0.4380  0.8910  -1.2450   0.0000   0.3385
   8.000   0.6842   0.02464   0.01770  -0.0485  0.4288  0.9471  -1.3157   0.0000   0.3062
   9.000   0.7610   0.02740   0.02049  -0.0429  0.4166  0.9731  -1.4120   0.0000   0.2906
  10.000   0.8519   0.03157   0.02490  -0.0436  0.4015  0.9876  -1.5216   0.0000   0.2843
  11.000   1.0118   0.03231   0.02536  -0.0525  0.3901  1.0000  -1.7492   0.0000   0.2835
  12.000   0.9336   0.04928   0.04315  -0.0450  0.3625  1.0000  -1.6468   0.0000   0.2788
  13.000   1.0819   0.04249   0.03619  -0.0394  0.3583  1.0000  -1.9502   0.0000   0.2649
  21.000   1.3630   0.10749   0.10311  -0.0703  0.1812  1.0000  -3.3655   0.0000   0.2628
  22.000   1.1265   0.17080   0.16651  -0.0995  0.1378  1.0000  -2.3840   0.0000   0.3023


