XFLR5 v6.09.05 beta

 Calculated polar for: -20S1223

 1 1 Reynolds number fixed          Mach number fixed         

 xtrf =   1.000 (top)        1.000 (bottom)
 Mach =   0.000     Re =     0.185 e 6     Ncrit =   9.000

  alpha     CL        CD       CDp       Cm    Top Xtr Bot Xtr   Cpmin    Chinge    XCp    
 ------- -------- --------- --------- -------- ------- ------- -------- --------- ---------
   0.000  -0.0221   0.06810   0.06299  -0.0631  0.5207  0.0435  -1.3528   0.0000  -2.6031
   1.000   0.0446   0.05230   0.04699  -0.0739  0.5028  0.0483  -1.3494   0.0000   1.8859
   2.000   0.1536   0.03895   0.03289  -0.0865  0.4860  0.0666  -1.3045   0.0000   0.8005
   3.000   0.2634   0.03102   0.02444  -0.0901  0.4686  0.0959  -1.0142   0.0000   0.5802
   4.000   0.4042   0.02068   0.01181  -0.0914  0.4552  0.0407  -1.2625   0.0000   0.4652
   5.000   0.5159   0.01902   0.01024  -0.0902  0.4436  0.0540  -1.1192   0.0000   0.4131
   6.000   0.6277   0.01798   0.01012  -0.0889  0.4305  0.4054  -1.2286   0.0000   0.3791
   7.000   0.6854   0.02057   0.01368  -0.0738  0.4204  0.8621  -1.3038   0.0000   0.3441
   8.000   0.7407   0.02189   0.01510  -0.0592  0.4124  0.9055  -1.3828   0.0000   0.3151
   9.000   0.8176   0.02271   0.01590  -0.0511  0.4009  0.9263  -1.4922   0.0000   0.2963
  10.000   0.9105   0.02417   0.01719  -0.0474  0.3910  0.9380  -1.6269   0.0000   0.2845
  11.000   0.9781   0.02649   0.01984  -0.0405  0.3795  0.9533  -1.7496   0.0000   0.2726
  12.000   1.0656   0.02786   0.02142  -0.0377  0.3661  0.9623  -1.9110   0.0000   0.2649
  13.000   1.1767   0.03007   0.02358  -0.0401  0.3527  0.9568  -2.1339   0.0000   0.2618
  14.000   1.2717   0.03273   0.02686  -0.0423  0.3369  0.9525  -2.4045   0.0000   0.2593
  15.000   1.4015   0.03250   0.02647  -0.0461  0.3214  0.9477  -2.8005   0.0000   0.2567
  16.000   1.5010   0.03301   0.02745  -0.0484  0.3023  0.9453  -3.1482   0.0000   0.2538
  17.000   1.6066   0.03273   0.02747  -0.0507  0.2800  0.9438  -3.5541   0.0000   0.2507
  18.000   1.6810   0.03474   0.02974  -0.0518  0.2550  0.9440  -3.9192   0.0000   0.2475
  19.000   1.6687   0.04659   0.04193  -0.0576  0.2264  0.9454  -4.0445   0.0000   0.2487
  20.000   1.6083   0.06558   0.06115  -0.0647  0.1975  0.9445  -4.0193   0.0000   0.2521
  21.000   1.5633   0.08476   0.08054  -0.0722  0.1692  0.9430  -4.0160   0.0000   0.2557
  22.000   1.5337   0.10267   0.09858  -0.0796  0.1449  0.9416  -4.0360   0.0000   0.2592
  23.000   1.5082   0.12103   0.11718  -0.0879  0.1260  0.9408  -4.0703   0.0000   0.2633
  24.000   1.5051   0.13581   0.13212  -0.0955  0.1111  0.9401  -4.2046   0.0000   0.2660


