XFLR5 v6.09.05 beta

 Calculated polar for: -20S1223

 1 1 Reynolds number fixed          Mach number fixed         

 xtrf =   1.000 (top)        1.000 (bottom)
 Mach =   0.000     Re =     0.045 e 6     Ncrit =   9.000

  alpha     CL        CD       CDp       Cm    Top Xtr Bot Xtr   Cpmin    Chinge    XCp    
 ------- -------- --------- --------- -------- ------- ------- -------- --------- ---------
   0.000   0.0016   0.08789   0.08224  -0.0584  0.7019  0.2622  -0.8279   0.0000  37.0781
   2.000   0.0536   0.07551   0.07036  -0.0629  0.6727  0.3660  -0.8159   0.0000   1.4242
   3.000   0.0507   0.07006   0.06540  -0.0439  0.6596  0.5265  -0.7602   0.0000   1.1120
   4.000   0.2898   0.05689   0.04873  -0.1119  0.6532  0.1367  -1.1589   0.0000   0.6298
   5.000   0.3561   0.05848   0.04944  -0.1146  0.6644  0.1385  -1.0226   0.0000   0.5650
   7.000   0.3542   0.06830   0.05916  -0.1101  0.7751  0.1931  -1.0019   0.0000   0.5525
   8.000   0.3877   0.07342   0.06601  -0.0919  0.7375  1.0000  -0.9822   0.0000   0.4776
   9.000   0.4628   0.08462   0.07618  -0.0926  0.7048  1.0000  -0.7658   0.0000   0.4393
  10.000   0.4693   0.08729   0.07846  -0.0862  0.6617  1.0000  -0.7705   0.0000   0.4219
  11.000   0.5218   0.09613   0.08693  -0.0862  0.6255  1.0000  -0.8120   0.0000   0.4021
  12.000   0.5717   0.10528   0.09586  -0.0864  0.5861  1.0000  -0.8599   0.0000   0.3868
  13.000   0.6202   0.11552   0.10599  -0.0875  0.5513  1.0000  -0.9105   0.0000   0.3757
  14.000   0.6683   0.12693   0.11737  -0.0895  0.5196  1.0000  -0.9608   0.0000   0.3672
  15.000   0.7230   0.14045   0.13093  -0.0922  0.4883  1.0000  -1.0331   0.0000   0.3595
  16.000   0.8323   0.16584   0.15655  -0.0981  0.4570  1.0000  -1.2096   0.0000   0.3481
  17.000   0.8367   0.17001   0.16091  -0.0988  0.4234  1.0000  -1.2373   0.0000   0.3470
  18.000   0.8371   0.17532   0.16639  -0.1019  0.3928  1.0000  -1.2340   0.0000   0.3493
  19.000   0.8545   0.18580   0.17708  -0.1078  0.3672  1.0000  -1.2322   0.0000   0.3524
  20.000   0.8878   0.19900   0.19050  -0.1140  0.3424  1.0000  -1.2586   0.0000   0.3531
  21.000   0.9627   0.23057   0.22264  -0.1186  0.3212  1.0000  -1.3924   0.0000   0.3459
  22.000   0.9712   0.23032   0.22261  -0.1260  0.2944  1.0000  -1.3584   0.0000   0.3508
  23.000   0.9841   0.24261   0.23509  -0.1359  0.2809  1.0000  -1.3127   0.0000   0.3575
  24.000   1.0499   0.27659   0.26943  -0.1396  0.2611  1.0000  -1.4603   0.0000   0.3501
  25.000   1.0424   0.27558   0.26862  -0.1513  0.2427  1.0000  -1.3795   0.0000   0.3605


