XFLR5 v6.09.05 beta

 Calculated polar for: -20S1223

 1 1 Reynolds number fixed          Mach number fixed         

 xtrf =   1.000 (top)        1.000 (bottom)
 Mach =   0.000     Re =     0.265 e 6     Ncrit =   9.000

  alpha     CL        CD       CDp       Cm    Top Xtr Bot Xtr   Cpmin    Chinge    XCp    
 ------- -------- --------- --------- -------- ------- ------- -------- --------- ---------
   0.000  -0.0198   0.06546   0.06055  -0.0630  0.4919  0.0281  -1.4885   0.0000  -2.9223
   1.000   0.0487   0.04719   0.04210  -0.0766  0.4776  0.0312  -1.5914   0.0000   1.8019
   2.000   0.1590   0.03554   0.02967  -0.0862  0.4571  0.0413  -1.4403   0.0000   0.7787
   3.000   0.2898   0.02145   0.01380  -0.0918  0.4452  0.0248  -1.6509   0.0000   0.5556
   4.000   0.4103   0.01698   0.00845  -0.0915  0.4316  0.0313  -1.3424   0.0000   0.4618
   5.000   0.5253   0.01639   0.00785  -0.0913  0.4192  0.0434  -1.1458   0.0000   0.4117
   6.000   0.6459   0.01495   0.00731  -0.0923  0.4084  0.3522  -1.2625   0.0000   0.3801
   7.000   0.7363   0.01608   0.00944  -0.0851  0.3988  0.8289  -1.3647   0.0000   0.3517
   8.000   0.8149   0.01862   0.01192  -0.0757  0.3874  0.8562  -1.4653   0.0000   0.3278
   9.000   0.8955   0.01936   0.01273  -0.0672  0.3810  0.8763  -1.5817   0.0000   0.3087
  10.000   0.9998   0.02043   0.01385  -0.0657  0.3709  0.8861  -1.7300   0.0000   0.2979
  11.000   1.0779   0.02062   0.01406  -0.0579  0.3612  0.9014  -1.8824   0.0000   0.2843
  12.000   1.1724   0.02258   0.01621  -0.0555  0.3496  0.9132  -2.0618   0.0000   0.2764
  13.000   1.2822   0.02307   0.01688  -0.0570  0.3373  0.9083  -2.3044   0.0000   0.2717
  14.000   1.3956   0.02420   0.01809  -0.0595  0.3213  0.9032  -2.6583   0.0000   0.2679
  15.000   1.5102   0.02411   0.01834  -0.0626  0.3064  0.8984  -3.0326   0.0000   0.2646
  16.000   1.6247   0.02428   0.01870  -0.0659  0.2858  0.8942  -3.4268   0.0000   0.2615
  17.000   1.7292   0.02521   0.01981  -0.0686  0.2604  0.8910  -3.8631   0.0000   0.2581
  18.000   1.8087   0.02836   0.02334  -0.0702  0.2272  0.8892  -4.2496   0.0000   0.2549
  19.000   1.7903   0.04001   0.03535  -0.0716  0.1946  0.8905  -4.3776   0.0000   0.2537
  20.000   1.7127   0.05990   0.05547  -0.0765  0.1695  0.8928  -4.3202   0.0000   0.2560
  21.000   1.6481   0.08086   0.07660  -0.0830  0.1454  0.8940  -4.2745   0.0000   0.2594
  22.000   1.5999   0.10132   0.09721  -0.0908  0.1233  0.8946  -4.2552   0.0000   0.2636
  23.000   1.5680   0.12056   0.11659  -0.0995  0.1039  0.8953  -4.3042   0.0000   0.2679
  24.000   1.5513   0.13797   0.13410  -0.1087  0.0877  0.8961  -4.4254   0.0000   0.2720
  25.000   1.5477   0.15313   0.14934  -0.1178  0.0752  0.8970  -4.7016   0.0000   0.2755


