XFLR5 v6.09.05 beta

 Calculated polar for: -20S1223

 1 1 Reynolds number fixed          Mach number fixed         

 xtrf =   1.000 (top)        1.000 (bottom)
 Mach =   0.000     Re =     0.205 e 6     Ncrit =   9.000

  alpha     CL        CD       CDp       Cm    Top Xtr Bot Xtr   Cpmin    Chinge    XCp    
 ------- -------- --------- --------- -------- ------- ------- -------- --------- ---------
   0.000  -0.0383   0.06644   0.06151  -0.0560  0.5125  0.0362  -1.2859   0.0000  -1.2088
   1.000   0.0661   0.05340   0.04787  -0.0773  0.4926  0.0441  -1.4228   0.0000   1.4035
   2.000   0.1487   0.03936   0.03364  -0.0839  0.4778  0.0551  -1.2497   0.0000   0.8009
   3.000   0.2702   0.02919   0.02236  -0.0909  0.4602  0.0790  -1.0925   0.0000   0.5744
   4.000   0.4061   0.01940   0.01070  -0.0915  0.4488  0.0380  -1.2809   0.0000   0.4642
   5.000   0.5193   0.01787   0.00911  -0.0904  0.4363  0.0502  -1.1292   0.0000   0.4123
   6.000   0.6331   0.01758   0.00973  -0.0902  0.4216  0.3907  -1.2374   0.0000   0.3799
   7.000   0.7082   0.01924   0.01244  -0.0790  0.4145  0.8527  -1.3272   0.0000   0.3478
   8.000   0.7683   0.02060   0.01385  -0.0651  0.4053  0.8892  -1.4133   0.0000   0.3197
   9.000   0.8490   0.02134   0.01444  -0.0570  0.3950  0.9103  -1.5302   0.0000   0.3008
  10.000   0.9354   0.02364   0.01682  -0.0527  0.3847  0.9199  -1.6540   0.0000   0.2887
  11.000   1.0117   0.02470   0.01812  -0.0460  0.3737  0.9362  -1.7937   0.0000   0.2765
  12.000   1.1119   0.02522   0.01866  -0.0444  0.3620  0.9438  -1.9776   0.0000   0.2692
  13.000   1.2158   0.02790   0.02155  -0.0462  0.3486  0.9391  -2.1952   0.0000   0.2656
  14.000   1.3248   0.02872   0.02274  -0.0483  0.3336  0.9348  -2.5142   0.0000   0.2622
  15.000   1.4368   0.02968   0.02378  -0.0510  0.3181  0.9307  -2.8759   0.0000   0.2591
  16.000   1.5536   0.02854   0.02278  -0.0539  0.2979  0.9276  -3.2695   0.0000   0.2560
  17.000   1.6497   0.02956   0.02430  -0.0557  0.2749  0.9260  -3.6643   0.0000   0.2527
  18.000   1.7223   0.03210   0.02717  -0.0566  0.2478  0.9266  -4.0279   0.0000   0.2493
  19.000   1.7117   0.04351   0.03887  -0.0611  0.2179  0.9296  -4.1646   0.0000   0.2497
  20.000   1.6533   0.06175   0.05732  -0.0672  0.1890  0.9300  -4.1538   0.0000   0.2523
  21.000   1.6048   0.08075   0.07638  -0.0740  0.1615  0.9293  -4.1495   0.0000   0.2554
  22.000   1.5732   0.09876   0.09454  -0.0813  0.1384  0.9284  -4.1711   0.0000   0.2586
  23.000   1.5431   0.11785   0.11396  -0.0900  0.1207  0.9275  -4.2047   0.0000   0.2630
  24.000   1.5213   0.13614   0.13253  -0.0995  0.1063  0.9268  -4.2767   0.0000   0.2677
  25.000   1.5230   0.15048   0.14693  -0.1089  0.0911  0.9264  -4.5433   0.0000   0.2712


