XFLR5 v6.09.05 beta

 Calculated polar for: -20S1223

 1 1 Reynolds number fixed          Mach number fixed         

 xtrf =   1.000 (top)        1.000 (bottom)
 Mach =   0.000     Re =     0.100 e 6     Ncrit =   9.000

  alpha     CL        CD       CDp       Cm    Top Xtr Bot Xtr   Cpmin    Chinge    XCp    
 ------- -------- --------- --------- -------- ------- ------- -------- --------- ---------
   0.000  -0.0283   0.07435   0.06906  -0.0637  0.5729  0.0887  -1.1465   0.0000  -2.0137
   1.000   0.0418   0.06406   0.05864  -0.0746  0.5550  0.1129  -1.0970   0.0000   2.0220
   2.000   0.1164   0.05447   0.04899  -0.0760  0.5375  0.1461  -0.9250   0.0000   0.8909
   3.000   0.2639   0.03478   0.02698  -0.0922  0.5227  0.0570  -1.4181   0.0000   0.5902
   4.000   0.3783   0.03099   0.02238  -0.0931  0.5060  0.0789  -1.1452   0.0000   0.4865
   5.000   0.4822   0.02937   0.02024  -0.0890  0.4943  0.0823  -1.0308   0.0000   0.4241
   6.000   0.5573   0.03205   0.02479  -0.0844  0.4771  0.4936  -1.0808   0.0000   0.3905
   7.000   0.5442   0.03550   0.02906  -0.0571  0.4667  0.9334  -1.0882   0.0000   0.3426
   8.000   0.6779   0.04054   0.03365  -0.0654  0.4518  1.0000  -1.2054   0.0000   0.3335
   9.000   0.6211   0.05535   0.04882  -0.0619  0.4375  1.0000  -1.0972   0.0000   0.3363
  10.000   0.7498   0.05441   0.04737  -0.0550  0.4242  1.0000  -1.2988   0.0000   0.3081
  11.000   0.6677   0.07665   0.06997  -0.0657  0.4138  1.0000  -1.1100   0.0000   0.3332
  13.000   0.7075   0.10128   0.09470  -0.0740  0.3963  1.0000  -1.1103   0.0000   0.3376
  14.000   0.7336   0.11190   0.10536  -0.0765  0.3685  1.0000  -1.1361   0.0000   0.3361
  15.000   0.8757   0.11063   0.10402  -0.0702  0.3196  1.0000  -1.4695   0.0000   0.3088
  16.000   0.9174   0.11853   0.11203  -0.0727  0.2936  1.0000  -1.5927   0.0000   0.3061
  17.000   0.8738   0.13845   0.13220  -0.0824  0.2715  1.0000  -1.4675   0.0000   0.3208
  18.000   0.8978   0.15158   0.14550  -0.0878  0.2492  1.0000  -1.5157   0.0000   0.3229
  19.000   0.9367   0.16183   0.15591  -0.0923  0.2208  1.0000  -1.6061   0.0000   0.3217
  20.000   0.9707   0.17378   0.16823  -0.0980  0.1979  1.0000  -1.6829   0.0000   0.3223
  21.000   1.0194   0.18356   0.17819  -0.1023  0.1774  1.0000  -1.8305   0.0000   0.3193
  22.000   1.0093   0.21882   0.21375  -0.1170  0.2052  1.0000  -1.5481   0.0000   0.3353
  23.000   1.0476   0.22902   0.22414  -0.1238  0.1825  1.0000  -1.6415   0.0000   0.3352
  24.000   1.0387   0.24741   0.24267  -0.1389  0.1743  1.0000  -1.4790   0.0000   0.3499
  25.000   1.0853   0.26326   0.25888  -0.1437  0.1588  1.0000  -1.6370   0.0000   0.3458


