XFLR5 v6.09.05 beta

 Calculated polar for: -25S1223

 1 1 Reynolds number fixed          Mach number fixed         

 xtrf =   1.000 (top)        1.000 (bottom)
 Mach =   0.000     Re =     0.095 e 6     Ncrit =   9.000

  alpha     CL        CD       CDp       Cm    Top Xtr Bot Xtr   Cpmin    Chinge    XCp    
 ------- -------- --------- --------- -------- ------- ------- -------- --------- ---------
   0.000  -0.2005   0.09341   0.08845  -0.0248  0.5707  0.0825  -1.2033   0.0000   0.1193
   1.000  -0.1663   0.08094   0.07617  -0.0323  0.5548  0.0908  -1.1996   0.0000   0.0511
   2.000  -0.1135   0.07047   0.06551  -0.0416  0.5409  0.1134  -1.1960   0.0000  -0.1177
   3.000  -0.0503   0.06122   0.05609  -0.0411  0.5279  0.1456  -1.0379   0.0000  -0.5560
   4.000   0.0326   0.05576   0.05055  -0.0457  0.5114  0.2065  -0.9128   0.0000   1.6118
   5.000   0.1770   0.03830   0.02996  -0.0503  0.5020  0.0603  -1.4244   0.0000   0.5200
   6.000   0.2694   0.03865   0.03018  -0.0491  0.4876  0.0798  -1.0512   0.0000   0.4190
   7.000   0.3423   0.04299   0.03463  -0.0473  0.4762  0.0922  -0.9072   0.0000   0.3754
   8.000   0.3648   0.04725   0.04112  -0.0275  0.4660  0.8588  -0.9100   0.0000   0.3116
   9.000   0.5619   0.05600   0.04949  -0.0489  0.4511  0.9794  -1.0482   0.0000   0.3236
  10.000   0.6657   0.07005   0.06355  -0.0695  0.4643  1.0000  -1.0934   0.0000   0.3408
  11.000   0.3770   0.07355   0.06716  -0.0176  0.4734  0.9737  -0.8278   0.0000   0.2814
  13.000   0.7520   0.08775   0.08086  -0.0452  0.3912  1.0000  -1.2923   0.0000   0.2918
  14.000   0.6514   0.10149   0.09477  -0.0402  0.3946  1.0000  -1.1183   0.0000   0.2933
  15.000   0.7506   0.10707   0.10032  -0.0330  0.3561  1.0000  -1.3383   0.0000   0.2731
  16.000   0.6766   0.11765   0.11088  -0.0149  0.3563  0.9916  -1.2617   0.0000   0.2502
  17.000   0.6021   0.11864   0.11184  -0.0109  0.3305  0.9872  -1.1451   0.0000   0.2454
  18.000   0.6061   0.12997   0.12334  -0.0142  0.3122  0.9824  -1.1444   0.0000   0.2499
  19.000   0.7358   0.13221   0.12557  -0.0118  0.2655  0.9767  -1.5098   0.0000   0.2389
  20.000   0.7698   0.14138   0.13486  -0.0170  0.2348  0.9724  -1.5930   0.0000   0.2431
  21.000   0.7264   0.16500   0.15879  -0.0318  0.2423  0.9694  -1.3249   0.0000   0.2659
  22.000   0.7495   0.18001   0.17398  -0.0418  0.2244  0.9661  -1.3063   0.0000   0.2770
  24.000   0.8255   0.20629   0.20078  -0.0599  0.1907  0.9616  -1.3524   0.0000   0.2906
  25.000   0.8991   0.23264   0.22739  -0.0644  0.1830  0.9605  -1.5431   0.0000   0.2871


