XFLR5 v6.09.05 beta

 Calculated polar for: -25S1223

 1 1 Reynolds number fixed          Mach number fixed         

 xtrf =   1.000 (top)        1.000 (bottom)
 Mach =   0.000     Re =     0.120 e 6     Ncrit =   9.000

  alpha     CL        CD       CDp       Cm    Top Xtr Bot Xtr   Cpmin    Chinge    XCp    
 ------- -------- --------- --------- -------- ------- ------- -------- --------- ---------
   0.000  -0.2060   0.09017   0.08532  -0.0252  0.5496  0.0615  -1.3179   0.0000   0.1218
   1.000  -0.1730   0.07525   0.07032  -0.0324  0.5370  0.0665  -1.3501   0.0000   0.0596
   2.000  -0.0972   0.06757   0.06229  -0.0422  0.5218  0.0847  -1.3004   0.0000  -0.1813
   3.000  -0.0300   0.05394   0.04833  -0.0455  0.5061  0.1121  -1.1947   0.0000  -1.2332
   4.000   0.0497   0.04608   0.04029  -0.0432  0.4942  0.1515  -0.9562   0.0000   1.0777
   5.000   0.1858   0.03088   0.02242  -0.0455  0.4808  0.0482  -1.4867   0.0000   0.4787
   6.000   0.2860   0.02901   0.02039  -0.0415  0.4676  0.0674  -1.0248   0.0000   0.3802
   7.000   0.3706   0.03004   0.02135  -0.0342  0.4571  0.0841  -0.9977   0.0000   0.3274
   8.000   0.4012   0.03991   0.03400  -0.0243  0.4386  0.8372  -0.9906   0.0000   0.2959
   9.000   0.4578   0.04159   0.03528  -0.0049  0.4295  0.9150  -1.0866   0.0000   0.2445
  10.000   0.4640   0.05357   0.04748  -0.0074  0.4099  0.9339  -1.0396   0.0000   0.2496
  11.000   0.4618   0.06084   0.05466  -0.0017  0.3997  0.9390  -1.0327   0.0000   0.2362
  12.000   0.4886   0.06715   0.06084   0.0013  0.3808  0.9429  -1.0650   0.0000   0.2285
  13.000   0.5148   0.07355   0.06718   0.0034  0.3648  0.9505  -1.0982   0.0000   0.2235
  14.000   0.5275   0.08174   0.07537   0.0044  0.3433  0.9594  -1.1101   0.0000   0.2207
  15.000   0.6604   0.08089   0.07436   0.0081  0.3263  0.9567  -1.3727   0.0000   0.2143
  16.000   0.6609   0.09421   0.08790  -0.0009  0.2990  0.9501  -1.3466   0.0000   0.2272
  17.000   0.6901   0.10584   0.09964  -0.0086  0.2729  0.9445  -1.3958   0.0000   0.2372
  18.000   0.7244   0.11764   0.11157  -0.0155  0.2493  0.9403  -1.4810   0.0000   0.2449
  19.000   0.7762   0.12630   0.12035  -0.0197  0.2294  0.9370  -1.6232   0.0000   0.2471
  20.000   0.8701   0.12687   0.12121  -0.0209  0.2105  0.9333  -1.9254   0.0000   0.2426
  21.000   0.8803   0.14158   0.13612  -0.0297  0.1862  0.9299  -1.9344   0.0000   0.2511
  22.000   0.8749   0.16148   0.15622  -0.0415  0.1639  0.9269  -1.8446   0.0000   0.2642
  23.000   0.8703   0.18399   0.17893  -0.0548  0.1525  0.9241  -1.6736   0.0000   0.2796
  24.000   0.8675   0.20829   0.20345  -0.0706  0.1666  0.9215  -1.4418   0.0000   0.2983
  25.000   0.9455   0.23126   0.22666  -0.0741  0.1588  0.9194  -1.6770   0.0000   0.2923


