XFLR5 v6.09.05 beta

 Calculated polar for: -25S1223

 1 1 Reynolds number fixed          Mach number fixed         

 xtrf =   1.000 (top)        1.000 (bottom)
 Mach =   0.000     Re =     0.335 e 6     Ncrit =   9.000

  alpha     CL        CD       CDp       Cm    Top Xtr Bot Xtr   Cpmin    Chinge    XCp    
 ------- -------- --------- --------- -------- ------- ------- -------- --------- ---------
   0.000  -0.2230   0.07910   0.07482  -0.0165  0.4809  0.0190  -1.5848   0.0000   0.1720
   1.000  -0.1850   0.06594   0.06151  -0.0275  0.4648  0.0205  -1.6216   0.0000   0.1005
   2.000  -0.1115   0.05127   0.04657  -0.0387  0.4523  0.0234  -1.6685   0.0000  -0.0908
   3.000  -0.0056   0.03846   0.03286  -0.0446  0.4382  0.0278  -1.7271   0.0000  -7.3829
   4.000   0.0906   0.02571   0.01914  -0.0464  0.4234  0.0355  -1.5539   0.0000   0.7326
   5.000   0.2083   0.01707   0.00908  -0.0428  0.4160  0.0220  -1.6647   0.0000   0.4363
   6.000   0.3168   0.01539   0.00726  -0.0401  0.4052  0.0299  -1.0839   0.0000   0.3595
   7.000   0.4238   0.01481   0.00655  -0.0378  0.3926  0.0396  -1.1368   0.0000   0.3224
   8.000   0.5213   0.01470   0.00854  -0.0335  0.3858  0.6493  -1.2362   0.0000   0.2970
   9.000   0.6185   0.01878   0.01270  -0.0255  0.3781  0.8070  -1.3520   0.0000   0.2734
  10.000   0.6953   0.02023   0.01416  -0.0135  0.3691  0.8381  -1.4654   0.0000   0.2503
  11.000   0.8587   0.02037   0.01425  -0.0186  0.3556  0.9305  -1.6666   0.0000   0.2517
  12.000   0.9649   0.02021   0.01427  -0.0178  0.3480  0.9473  -1.8427   0.0000   0.2470
  13.000   1.0888   0.01975   0.01381  -0.0211  0.3363  0.9669  -2.0675   0.0000   0.2464
  14.000   1.1733   0.02074   0.01485  -0.0171  0.3232  0.9675  -2.2930   0.0000   0.2399
  15.000   1.2661   0.02055   0.01505  -0.0149  0.3121  0.9696  -2.6121   0.0000   0.2352
  16.000   1.3565   0.02053   0.01498  -0.0125  0.2933  0.9728  -2.9417   0.0000   0.2306
  17.000   1.4300   0.02089   0.01571  -0.0075  0.2775  0.9807  -3.2507   0.0000   0.2245
  18.000   1.5057   0.02183   0.01699  -0.0048  0.2544  0.9824  -3.6056   0.0000   0.2203
  20.000   1.5774   0.04064   0.03598  -0.0252  0.1852  0.8564  -4.0866   0.0000   0.2281
  21.000   1.5313   0.05766   0.05311  -0.0330  0.1589  0.8456  -4.0975   0.0000   0.2314
  22.000   1.4865   0.07592   0.07156  -0.0417  0.1344  0.8418  -4.0946   0.0000   0.2357
  23.000   1.4527   0.09423   0.08997  -0.0506  0.1118  0.8388  -4.1087   0.0000   0.2403
  24.000   1.4291   0.11173   0.10754  -0.0597  0.0926  0.8362  -4.1653   0.0000   0.2451
  25.000   1.4187   0.12840   0.12437  -0.0696  0.0797  0.8336  -4.2840   0.0000   0.2500


