XFLR5 v6.09.05 beta

 Calculated polar for: -25S1223

 1 1 Reynolds number fixed          Mach number fixed         

 xtrf =   1.000 (top)        1.000 (bottom)
 Mach =   0.000     Re =     0.265 e 6     Ncrit =   9.000

  alpha     CL        CD       CDp       Cm    Top Xtr Bot Xtr   Cpmin    Chinge    XCp    
 ------- -------- --------- --------- -------- ------- ------- -------- --------- ---------
   0.000  -0.2172   0.08137   0.07680  -0.0174  0.4933  0.0257  -1.5033   0.0000   0.1660
   1.000  -0.1642   0.06895   0.06431  -0.0315  0.4801  0.0277  -1.6243   0.0000   0.0575
   3.000  -0.0203   0.03881   0.03331  -0.0447  0.4521  0.0355  -1.5743   0.0000  -1.8767
   4.000   0.0863   0.02810   0.02154  -0.0465  0.4395  0.0503  -1.4130   0.0000   0.7578
   5.000   0.2064   0.01925   0.01092  -0.0428  0.4270  0.0259  -1.5928   0.0000   0.4385
   6.000   0.3129   0.01730   0.00896  -0.0400  0.4177  0.0387  -1.0376   0.0000   0.3608
   7.000   0.4191   0.01641   0.00802  -0.0371  0.4068  0.0443  -1.1212   0.0000   0.3219
   8.000   0.4765   0.01844   0.01234  -0.0182  0.3984  0.6780  -1.1990   0.0000   0.2708
   9.000   0.5872   0.02158   0.01527  -0.0173  0.3882  0.8240  -1.3160   0.0000   0.2616
  10.000   0.6691   0.02273   0.01651  -0.0067  0.3799  0.8642  -1.4310   0.0000   0.2411
  11.000   0.9969   0.01893   0.01241  -0.0483  0.3643  1.0000  -1.7889   0.0000   0.2791
  12.000   1.0863   0.02058   0.01427  -0.0451  0.3531  1.0000  -1.9529   0.0000   0.2705
  13.000   1.1772   0.02115   0.01504  -0.0421  0.3416  1.0000  -2.1552   0.0000   0.2631
  14.000   1.2699   0.02128   0.01524  -0.0392  0.3293  1.0000  -2.4365   0.0000   0.2564
  15.000   1.3513   0.02246   0.01678  -0.0354  0.3158  1.0000  -2.7390   0.0000   0.2498
  16.000   1.4422   0.02178   0.01609  -0.0326  0.2984  1.0000  -3.0785   0.0000   0.2440
  17.000   1.5192   0.02256   0.01736  -0.0289  0.2788  1.0000  -3.4060   0.0000   0.2383
  18.000   1.5873   0.02395   0.01901  -0.0249  0.2555  1.0000  -3.7583   0.0000   0.2327
  20.000   1.5317   0.04119   0.03656  -0.0153  0.2053  0.8705  -3.9723   0.0000   0.2223
  21.000   1.5044   0.05815   0.05366  -0.0281  0.1747  0.8604  -4.0196   0.0000   0.2286
  22.000   1.4748   0.07620   0.07188  -0.0388  0.1489  0.8541  -4.0483   0.0000   0.2340
  23.000   1.4463   0.09297   0.08877  -0.0455  0.1277  0.8514  -4.0760   0.0000   0.2369
  24.000   1.4202   0.10906   0.10496  -0.0514  0.1091  0.8498  -4.1349   0.0000   0.2394


