XFLR5 v6.09.05 beta

 Calculated polar for: -25S1223

 1 1 Reynolds number fixed          Mach number fixed         

 xtrf =   1.000 (top)        1.000 (bottom)
 Mach =   0.000     Re =     0.280 e 6     Ncrit =   9.000

  alpha     CL        CD       CDp       Cm    Top Xtr Bot Xtr   Cpmin    Chinge    XCp    
 ------- -------- --------- --------- -------- ------- ------- -------- --------- ---------
   2.000  -0.0903   0.05341   0.04831  -0.0411  0.4598  0.0279  -1.7217   0.0000  -0.1960
   3.000  -0.0191   0.03711   0.03156  -0.0452  0.4492  0.0331  -1.6646   0.0000  -2.0261
   4.000   0.0881   0.02720   0.02051  -0.0465  0.4364  0.0481  -1.4724   0.0000   0.7467
   5.000   0.2067   0.01887   0.01061  -0.0428  0.4233  0.0250  -1.6094   0.0000   0.4384
   6.000   0.3135   0.01672   0.00845  -0.0399  0.4148  0.0364  -1.0518   0.0000   0.3603
   7.000   0.4205   0.01589   0.00753  -0.0373  0.4038  0.0433  -1.1260   0.0000   0.3219
   8.000   0.4848   0.01681   0.01060  -0.0225  0.3948  0.6745  -1.2062   0.0000   0.2791
   9.000   0.6005   0.02081   0.01453  -0.0211  0.3861  0.8190  -1.3288   0.0000   0.2672
  10.000   0.6819   0.02246   0.01626  -0.0111  0.3771  0.8544  -1.4435   0.0000   0.2472
  11.000   1.0001   0.01835   0.01185  -0.0488  0.3616  1.0000  -1.7952   0.0000   0.2793
  12.000   1.0907   0.01973   0.01350  -0.0456  0.3512  1.0000  -1.9611   0.0000   0.2708
  13.000   1.1829   0.02021   0.01412  -0.0428  0.3396  1.0000  -2.1660   0.0000   0.2634
  14.000   1.2730   0.02093   0.01491  -0.0396  0.3258  1.0000  -2.4439   0.0000   0.2566
  15.000   1.3580   0.02148   0.01584  -0.0362  0.3138  1.0000  -2.7548   0.0000   0.2502
  16.000   1.4478   0.02110   0.01537  -0.0333  0.2950  1.0000  -3.0925   0.0000   0.2444
  17.000   1.5271   0.02171   0.01652  -0.0300  0.2766  1.0000  -3.4270   0.0000   0.2389
  18.000   1.5957   0.02323   0.01831  -0.0261  0.2526  1.0000  -3.7809   0.0000   0.2333
  20.000   1.5409   0.04067   0.03610  -0.0165  0.2017  0.8680  -3.9980   0.0000   0.2230
  21.000   1.5190   0.05832   0.05383  -0.0316  0.1703  0.8554  -4.0555   0.0000   0.2307
  22.000   1.4776   0.07604   0.07173  -0.0386  0.1465  0.8515  -4.0626   0.0000   0.2338
  23.000   1.4423   0.09291   0.08873  -0.0439  0.1254  0.8498  -4.0773   0.0000   0.2359
  25.000   1.4110   0.12667   0.12270  -0.0647  0.0892  0.8441  -4.2556   0.0000   0.2468


