XFLR5 v6.09.05 beta

 Calculated polar for: -25S1223

 1 1 Reynolds number fixed          Mach number fixed         

 xtrf =   1.000 (top)        1.000 (bottom)
 Mach =   0.000     Re =     0.300 e 6     Ncrit =   9.000

  alpha     CL        CD       CDp       Cm    Top Xtr Bot Xtr   Cpmin    Chinge    XCp    
 ------- -------- --------- --------- -------- ------- ------- -------- --------- ---------
   1.000  -0.1828   0.06691   0.06244  -0.0274  0.4726  0.0237  -1.5734   0.0000   0.0996
   2.000  -0.0936   0.05316   0.04823  -0.0403  0.4569  0.0276  -1.6893   0.0000  -0.1722
   3.000  -0.0168   0.03459   0.02886  -0.0458  0.4456  0.0311  -1.8306   0.0000  -2.3822
   4.000   0.0937   0.03075   0.02415  -0.0454  0.4312  0.0438  -1.3972   0.0000   0.7049
   5.000   0.2073   0.01812   0.00998  -0.0428  0.4209  0.0238  -1.6284   0.0000   0.4376
   6.000   0.3144   0.01608   0.00786  -0.0398  0.4110  0.0337  -1.0742   0.0000   0.3597
   7.000   0.4220   0.01531   0.00698  -0.0374  0.4002  0.0420  -1.1315   0.0000   0.3219
   9.000   0.6172   0.02072   0.01450  -0.0250  0.3830  0.8137  -1.3448   0.0000   0.2727
  11.000   0.9221   0.01953   0.01316  -0.0315  0.3597  0.9711  -1.7243   0.0000   0.2645
  12.000   1.0958   0.01879   0.01264  -0.0463  0.3486  1.0000  -1.9704   0.0000   0.2712
  13.000   1.1887   0.01915   0.01308  -0.0435  0.3373  0.9999  -2.1777   0.0000   0.2638
  14.000   1.2717   0.02037   0.01444  -0.0390  0.3234  0.9991  -2.4449   0.0000   0.2561
  15.000   1.3629   0.02040   0.01479  -0.0366  0.3114  0.9995  -2.7683   0.0000   0.2503
  16.000   1.4539   0.02030   0.01465  -0.0343  0.2924  1.0000  -3.1073   0.0000   0.2449
  17.000   1.5360   0.02077   0.01558  -0.0313  0.2738  1.0000  -3.4509   0.0000   0.2395
  18.000   1.6053   0.02239   0.01749  -0.0275  0.2488  1.0000  -3.8070   0.0000   0.2340
  20.000   1.5531   0.04010   0.03555  -0.0183  0.1965  0.8649  -4.0312   0.0000   0.2240
  21.000   1.5249   0.05835   0.05384  -0.0323  0.1662  0.8521  -4.0751   0.0000   0.2311
  22.000   1.4753   0.07587   0.07156  -0.0370  0.1437  0.8499  -4.0668   0.0000   0.2328
  24.000   1.4263   0.11067   0.10652  -0.0570  0.1004  0.8424  -4.1553   0.0000   0.2432
  25.000   1.4133   0.12740   0.12344  -0.0666  0.0852  0.8403  -4.2661   0.0000   0.2481


