XFLR5 v6.09.05 beta

 Calculated polar for: -25S1223

 1 1 Reynolds number fixed          Mach number fixed         

 xtrf =   1.000 (top)        1.000 (bottom)
 Mach =   0.000     Re =     0.010 e 6     Ncrit =   9.000

  alpha     CL        CD       CDp       Cm    Top Xtr Bot Xtr   Cpmin    Chinge    XCp    
 ------- -------- --------- --------- -------- ------- ------- -------- --------- ---------
   0.000  -0.0583   0.09252   0.08245   0.0004  1.0000  0.8829  -0.9022   0.0000   0.2292
   1.000  -0.1474   0.09456   0.08534   0.0115  1.0000  0.7580  -1.0032   0.0000   0.3169
   2.000  -0.2872   0.09793   0.08927   0.0296  1.0000  0.6813  -1.1520   0.0000   0.3461
   3.000  -0.3668   0.09380   0.08554   0.0366  1.0000  0.6193  -1.2578   0.0000   0.3439
   4.000  -0.4257   0.08635   0.07824   0.0350  1.0000  0.5636  -1.3691   0.0000   0.3270
   5.000  -0.3943   0.07683   0.06797   0.0196  1.0000  0.5312  -1.3997   0.0000   0.2949
   6.000  -0.2790   0.06861   0.05831  -0.0034  1.0000  0.5154  -1.3252   0.0000   0.2340
   7.000  -0.1580   0.06289   0.05122  -0.0178  1.0000  0.5782  -1.2637   0.0000   0.1362
   8.000  -0.0877   0.05822   0.04821  -0.0132  1.0000  1.0000  -1.3592   0.0000   0.1035
   9.000   0.0418   0.06577   0.05000  -0.0222  1.0000  1.0000  -1.4004   0.0000   0.7472
  10.000   0.0951   0.07106   0.05326  -0.0210  1.0000  1.0000  -1.1400   0.0000   0.4475
  11.000   0.1452   0.07687   0.05771  -0.0203  1.0000  1.0000  -0.8622   0.0000   0.3695
  12.000   0.1939   0.08327   0.06300  -0.0204  1.0000  1.0000  -0.5990   0.0000   0.3354
  13.000   0.2416   0.09032   0.06938  -0.0212  1.0000  1.0000  -0.6307   0.0000   0.3183
  14.000   0.2885   0.09802   0.07665  -0.0229  1.0000  1.0000  -0.6626   0.0000   0.3096
  15.000   0.3347   0.10640   0.08480  -0.0254  1.0000  1.0000  -0.7016   0.0000   0.3056
  16.000   0.3802   0.11548   0.09375  -0.0288  1.0000  1.0000  -0.7382   0.0000   0.3046
  17.000   0.4252   0.12522   0.10353  -0.0329  1.0000  1.0000  -0.7810   0.0000   0.3057
  18.000   0.4695   0.13563   0.11411  -0.0379  1.0000  1.0000  -0.8300   0.0000   0.3081
  19.000   0.5131   0.14674   0.12551  -0.0437  1.0000  1.0000  -0.8722   0.0000   0.3114
  20.000   0.5560   0.15858   0.13788  -0.0502  1.0000  1.0000  -0.9266   0.0000   0.3153
  21.000   0.6113   0.17485   0.15460  -0.0608  0.9863  1.0000  -0.9774   0.0000   0.3233
  22.000   0.7031   0.19899   0.17939  -0.0782  0.8311  1.0000  -1.0540   0.0000   0.3339
  23.000   0.7513   0.21776   0.19866  -0.0855  0.7529  1.0000  -1.1056   0.0000   0.3348
  24.000   0.7966   0.23973   0.22165  -0.0931  0.7032  1.0000  -1.1365   0.0000   0.3363
  25.000   0.8228   0.24818   0.23060  -0.0978  0.6567  1.0000  -1.1541   0.0000   0.3367


