XFLR5 v6.09.05 beta

 Calculated polar for: -25S1223

 1 1 Reynolds number fixed          Mach number fixed         

 xtrf =   1.000 (top)        1.000 (bottom)
 Mach =   0.000     Re =     0.325 e 6     Ncrit =   9.000

  alpha     CL        CD       CDp       Cm    Top Xtr Bot Xtr   Cpmin    Chinge    XCp    
 ------- -------- --------- --------- -------- ------- ------- -------- --------- ---------
   0.000  -0.2213   0.07954   0.07522  -0.0161  0.4824  0.0196  -1.5471   0.0000   0.1731
   1.000  -0.1847   0.06629   0.06185  -0.0273  0.4672  0.0213  -1.5992   0.0000   0.1017
   2.000  -0.1099   0.05147   0.04673  -0.0389  0.4537  0.0245  -1.6702   0.0000  -0.0970
   3.000  -0.0053   0.03876   0.03311  -0.0446  0.4400  0.0279  -1.7278   0.0000  -7.8870
   4.000   0.0901   0.02623   0.01965  -0.0464  0.4244  0.0370  -1.5290   0.0000   0.7348
   5.000   0.2080   0.01735   0.00932  -0.0428  0.4174  0.0225  -1.6536   0.0000   0.4367
   6.000   0.3159   0.01552   0.00735  -0.0400  0.4068  0.0309  -1.0887   0.0000   0.3594
   7.000   0.4234   0.01485   0.00657  -0.0377  0.3952  0.0403  -1.1361   0.0000   0.3222
   8.000   0.5152   0.01510   0.00892  -0.0318  0.3869  0.6533  -1.2307   0.0000   0.2945
   9.000   0.6183   0.01931   0.01320  -0.0254  0.3795  0.8089  -1.3502   0.0000   0.2732
  10.000   0.6945   0.02066   0.01456  -0.0133  0.3703  0.8406  -1.4630   0.0000   0.2502
  11.000   0.8592   0.02070   0.01453  -0.0184  0.3561  0.9450  -1.6661   0.0000   0.2515
  12.000   0.9878   0.02020   0.01420  -0.0226  0.3485  0.9579  -1.8635   0.0000   0.2516
  13.000   1.1123   0.01964   0.01366  -0.0263  0.3367  0.9734  -2.0931   0.0000   0.2507
  14.000   1.1961   0.02071   0.01478  -0.0221  0.3234  0.9740  -2.3278   0.0000   0.2438
  16.000   1.3777   0.02053   0.01494  -0.0171  0.2933  0.9827  -2.9775   0.0000   0.2338
  17.000   1.4691   0.02062   0.01550  -0.0161  0.2758  0.9853  -3.3204   0.0000   0.2302
  18.000   1.5409   0.02194   0.01709  -0.0127  0.2522  0.9877  -3.6772   0.0000   0.2252
  20.000   1.5691   0.04022   0.03561  -0.0225  0.1891  0.8597  -4.0694   0.0000   0.2265
  21.000   1.5263   0.05806   0.05353  -0.0321  0.1616  0.8473  -4.0842   0.0000   0.2309
  22.000   1.4852   0.07572   0.07130  -0.0409  0.1356  0.8433  -4.0903   0.0000   0.2352
  23.000   1.4517   0.09390   0.08960  -0.0498  0.1132  0.8404  -4.1052   0.0000   0.2397
  24.000   1.4278   0.11136   0.10712  -0.0589  0.0937  0.8380  -4.1615   0.0000   0.2445
  25.000   1.4169   0.12812   0.12410  -0.0687  0.0811  0.8356  -4.2788   0.0000   0.2494


