XFLR5 v6.09.05 beta

 Calculated polar for: -25S1223

 1 1 Reynolds number fixed          Mach number fixed         

 xtrf =   1.000 (top)        1.000 (bottom)
 Mach =   0.000     Re =     0.195 e 6     Ncrit =   9.000

  alpha     CL        CD       CDp       Cm    Top Xtr Bot Xtr   Cpmin    Chinge    XCp    
 ------- -------- --------- --------- -------- ------- ------- -------- --------- ---------
   0.000  -0.2144   0.08250   0.07782  -0.0170  0.5155  0.0327  -1.4088   0.0000   0.1659
   1.000  -0.1795   0.07033   0.06554  -0.0265  0.5005  0.0366  -1.4145   0.0000   0.1013
   2.000  -0.0909   0.05787   0.05259  -0.0414  0.4864  0.0438  -1.5545   0.0000  -0.1988
   3.000  -0.0246   0.04351   0.03797  -0.0438  0.4718  0.0531  -1.3756   0.0000  -1.4655
   4.000   0.0779   0.03366   0.02722  -0.0463  0.4578  0.0754  -1.2093   0.0000   0.8115
   5.000   0.2017   0.02173   0.01322  -0.0428  0.4480  0.0329  -1.5593   0.0000   0.4442
   6.000   0.3069   0.01990   0.01133  -0.0397  0.4359  0.0505  -1.0084   0.0000   0.3629
   7.000   0.4072   0.01984   0.01111  -0.0356  0.4233  0.0580  -1.0895   0.0000   0.3212
   8.000   0.4903   0.02323   0.01682  -0.0254  0.4151  0.8114  -1.1808   0.0000   0.2851
   9.000   0.5529   0.02574   0.01938  -0.0097  0.4051  0.8561  -1.2652   0.0000   0.2500
  10.000   0.6626   0.02610   0.01948  -0.0047  0.3945  0.9042  -1.4056   0.0000   0.2386
  11.000   0.7661   0.02879   0.02238  -0.0040  0.3827  0.9398  -1.5404   0.0000   0.2357
  12.000   1.0571   0.02580   0.01936  -0.0422  0.3655  1.0000  -1.8961   0.0000   0.2693
  13.000   1.1381   0.02802   0.02170  -0.0383  0.3531  1.0000  -2.0795   0.0000   0.2614
  14.000   1.2126   0.03009   0.02415  -0.0344  0.3385  1.0000  -2.3032   0.0000   0.2543
  15.000   1.3081   0.02917   0.02319  -0.0309  0.3255  1.0000  -2.6359   0.0000   0.2475
  16.000   1.0094   0.05167   0.04641   0.0056  0.3012  0.9114  -2.1818   0.0000   0.2167
  18.000   1.3043   0.03916   0.03411   0.0065  0.2777  0.9025  -3.0902   0.0000   0.2126
  19.000   1.3953   0.04200   0.03723  -0.0026  0.2534  0.8938  -3.4515   0.0000   0.2170
  20.000   1.4145   0.05408   0.04950  -0.0151  0.2236  0.8857  -3.6237   0.0000   0.2234
  21.000   1.3990   0.06767   0.06319  -0.0219  0.1950  0.8816  -3.7066   0.0000   0.2260
  22.000   1.3949   0.08046   0.07601  -0.0287  0.1672  0.8785  -3.8119   0.0000   0.2287
  23.000   1.3806   0.09586   0.09159  -0.0368  0.1434  0.8757  -3.8660   0.0000   0.2324
  24.000   1.3491   0.11458   0.11061  -0.0462  0.1252  0.8732  -3.8533   0.0000   0.2380
  25.000   1.2688   0.14361   0.14004  -0.0611  0.1109  0.8709  -3.5982   0.0000   0.2509


