XFLR5 v6.09.05 beta

 Calculated polar for: -25S1223

 1 1 Reynolds number fixed          Mach number fixed         

 xtrf =   1.000 (top)        1.000 (bottom)
 Mach =   0.000     Re =     0.225 e 6     Ncrit =   9.000

  alpha     CL        CD       CDp       Cm    Top Xtr Bot Xtr   Cpmin    Chinge    XCp    
 ------- -------- --------- --------- -------- ------- ------- -------- --------- ---------
   0.000  -0.2119   0.08429   0.07963  -0.0232  0.5062  0.0279  -1.5897   0.0000   0.1367
   1.000  -0.1814   0.06658   0.06183  -0.0314  0.4916  0.0304  -1.6729   0.0000   0.0759
   2.000  -0.1135   0.05493   0.05002  -0.0373  0.4766  0.0352  -1.4953   0.0000  -0.0737
   3.000  -0.0182   0.03885   0.03283  -0.0458  0.4619  0.0464  -1.6421   0.0000  -2.1880
   4.000   0.0843   0.03055   0.02383  -0.0468  0.4498  0.0666  -1.3354   0.0000   0.7744
   5.000   0.2055   0.02076   0.01231  -0.0429  0.4384  0.0288  -1.5636   0.0000   0.4401
   6.000   0.3119   0.01934   0.01073  -0.0403  0.4252  0.0442  -1.0104   0.0000   0.3626
   7.000   0.4133   0.01800   0.00945  -0.0362  0.4163  0.0516  -1.1050   0.0000   0.3213
   8.000   0.4958   0.01985   0.01354  -0.0264  0.4067  0.7912  -1.1976   0.0000   0.2864
   9.000   0.5752   0.02328   0.01684  -0.0135  0.3979  0.8424  -1.2991   0.0000   0.2557
  10.000   0.6571   0.02561   0.01918  -0.0048  0.3871  0.8793  -1.4091   0.0000   0.2386
  12.000   1.0762   0.02245   0.01589  -0.0438  0.3599  1.0000  -1.9338   0.0000   0.2699
  13.000   1.1582   0.02440   0.01820  -0.0400  0.3478  1.0000  -2.1186   0.0000   0.2621
  14.000   1.2466   0.02481   0.01874  -0.0367  0.3350  1.0000  -2.3822   0.0000   0.2552
  15.000   1.3294   0.02579   0.01996  -0.0329  0.3211  1.0000  -2.6873   0.0000   0.2485
  16.000   1.4126   0.02564   0.02008  -0.0293  0.3046  1.0000  -3.0063   0.0000   0.2424
  17.000   1.4917   0.02563   0.02034  -0.0255  0.2851  1.0000  -3.3327   0.0000   0.2366
  19.000   1.4958   0.03357   0.02872  -0.0049  0.2457  0.8884  -3.7247   0.0000   0.2181
  21.000   1.4782   0.05781   0.05311  -0.0210  0.1844  0.8728  -3.9541   0.0000   0.2243
  22.000   1.4518   0.07389   0.06936  -0.0297  0.1574  0.8681  -3.9966   0.0000   0.2282
  23.000   1.4375   0.08980   0.08540  -0.0388  0.1344  0.8641  -4.0549   0.0000   0.2324
  24.000   1.4272   0.10585   0.10161  -0.0484  0.1163  0.8605  -4.1468   0.0000   0.2370
  25.000   1.3954   0.12662   0.12282  -0.0607  0.1033  0.8575  -4.1608   0.0000   0.2446


