XFLR5 v6.09.05 beta

 Calculated polar for: -25S1223

 1 1 Reynolds number fixed          Mach number fixed         

 xtrf =   1.000 (top)        1.000 (bottom)
 Mach =   0.000     Re =     0.050 e 6     Ncrit =   9.000

  alpha     CL        CD       CDp       Cm    Top Xtr Bot Xtr   Cpmin    Chinge    XCp    
 ------- -------- --------- --------- -------- ------- ------- -------- --------- ---------
   0.000  -0.1885   0.11018   0.10487  -0.0397  0.6769  0.1991  -1.0703   0.0000   0.0301
   1.000  -0.1485   0.10103   0.09584  -0.0443  0.6643  0.2349  -1.0249   0.0000  -0.0567
   2.000  -0.1066   0.08635   0.08147  -0.0456  0.6537  0.2775  -0.9613   0.0000  -0.1847
   3.000  -0.0683   0.07715   0.07236  -0.0410  0.6393  0.3276  -0.8966   0.0000  -0.3559
   4.000  -0.0323   0.07114   0.06640  -0.0404  0.6370  0.4155  -0.8663   0.0000  -0.9985
   5.000   0.1335   0.05908   0.05159  -0.0799  0.6624  0.1306  -1.2518   0.0000   0.8395
   6.000   0.1317   0.05853   0.05062  -0.0834  0.7730  0.1248  -1.2535   0.0000   0.8730
   7.000   0.2108   0.06148   0.05247  -0.0781  0.7414  0.1293  -1.0681   0.0000   0.6104
   8.000   0.2594   0.06615   0.05720  -0.0678  0.7089  0.1950  -1.0333   0.0000   0.5004
   9.000   0.3750   0.07300   0.06529  -0.0681  0.6767  1.0000  -0.8248   0.0000   0.4204
  10.000   0.4216   0.08080   0.07246  -0.0627  0.6410  1.0000  -0.7761   0.0000   0.3864
  11.000   0.4350   0.08602   0.07731  -0.0544  0.6087  1.0000  -0.7917   0.0000   0.3615
  12.000   0.4614   0.09259   0.08359  -0.0480  0.5738  1.0000  -0.8259   0.0000   0.3392
  13.000   0.4711   0.09855   0.08940  -0.0414  0.5440  1.0000  -0.8365   0.0000   0.3218
  14.000   0.4912   0.10563   0.09632  -0.0362  0.5126  1.0000  -0.8698   0.0000   0.3064
  15.000   0.5522   0.12028   0.11087  -0.0351  0.4928  1.0000  -0.9505   0.0000   0.2951
  17.000   0.5988   0.13388   0.12456  -0.0321  0.4289  1.0000  -1.0367   0.0000   0.2826
  18.000   0.6105   0.14171   0.13262  -0.0337  0.4012  1.0000  -1.0561   0.0000   0.2832
  19.000   0.6395   0.15281   0.14386  -0.0372  0.3771  1.0000  -1.1023   0.0000   0.2849
  20.000   0.7278   0.17853   0.16979  -0.0422  0.3558  1.0000  -1.2474   0.0000   0.2831
  22.000   0.7406   0.18849   0.18014  -0.0534  0.3056  1.0000  -1.1976   0.0000   0.2949
  23.000   0.7790   0.20322   0.19530  -0.0602  0.2884  1.0000  -1.2239   0.0000   0.2985
  24.000   0.8297   0.21968   0.21206  -0.0664  0.2665  1.0000  -1.2920   0.0000   0.2992
  25.000   0.8427   0.22753   0.22010  -0.0768  0.2486  1.0000  -1.2612   0.0000   0.3090


