XFLR5 v6.09.05 beta

 Calculated polar for: -25S1223

 1 1 Reynolds number fixed          Mach number fixed         

 xtrf =   1.000 (top)        1.000 (bottom)
 Mach =   0.000     Re =     0.035 e 6     Ncrit =   9.000

  alpha     CL        CD       CDp       Cm    Top Xtr Bot Xtr   Cpmin    Chinge    XCp    
 ------- -------- --------- --------- -------- ------- ------- -------- --------- ---------
   0.000  -0.1055   0.09624   0.09033  -0.0363  0.7786  0.3279  -0.8648   0.0000  -0.1078
   1.000  -0.0877   0.09167   0.08611  -0.0374  0.7629  0.3966  -0.8588   0.0000  -0.1879
   2.000   0.0332   0.07562   0.07030  -0.0295  0.7496  0.6687  -0.7185   0.0000   1.1504
   3.000   0.0650   0.06966   0.06461  -0.0330  0.7428  0.6974  -0.7303   0.0000   0.7545
   4.000  -0.0644   0.06946   0.06502  -0.0232  0.7770  0.6440  -0.8544   0.0000  -0.1112
   6.000  -0.4398   0.06502   0.06147   0.0344  1.0000  0.6376  -1.0678   0.0000   0.3231
   7.000  -0.0942   0.05911   0.05109  -0.0453  1.0000  0.1640  -1.3402   0.0000  -0.2314
   8.000  -0.0080   0.05831   0.04890  -0.0457  1.0000  0.1631  -1.2062   0.0000  -5.3842
   9.000   0.2175   0.06560   0.05736  -0.0545  0.8648  1.0000  -1.1456   0.0000   0.4881
  10.000   0.3182   0.07645   0.06680  -0.0566  0.7708  1.0000  -0.7703   0.0000   0.4150
  11.000   0.3509   0.08399   0.07375  -0.0507  0.7239  1.0000  -0.7043   0.0000   0.3805
  12.000   0.3866   0.09171   0.08106  -0.0460  0.6857  1.0000  -0.7376   0.0000   0.3540
  13.000   0.4327   0.10078   0.08983  -0.0429  0.6445  1.0000  -0.7842   0.0000   0.3330
  14.000   0.4667   0.10906   0.09794  -0.0398  0.6095  1.0000  -0.8256   0.0000   0.3180
  15.000   0.5087   0.11884   0.10762  -0.0385  0.5722  1.0000  -0.8737   0.0000   0.3073
  16.000   0.5380   0.12725   0.11603  -0.0377  0.5384  1.0000  -0.9125   0.0000   0.3006
  17.000   0.5690   0.13647   0.12532  -0.0383  0.5048  1.0000  -0.9599   0.0000   0.2968
  18.000   0.6000   0.14636   0.13547  -0.0402  0.4727  1.0000  -1.0067   0.0000   0.2953
  19.000   0.6334   0.15793   0.14720  -0.0436  0.4472  1.0000  -1.0600   0.0000   0.2960
  20.000   0.6759   0.17193   0.16140  -0.0479  0.4183  1.0000  -1.1143   0.0000   0.2968
  21.000   0.7512   0.19906   0.18882  -0.0542  0.3892  1.0000  -1.2179   0.0000   0.2964
  22.000   0.7549   0.19830   0.18829  -0.0583  0.3604  1.0000  -1.2038   0.0000   0.3002
  23.000   0.7721   0.20579   0.19625  -0.0657  0.3399  1.0000  -1.1813   0.0000   0.3067
  24.000   0.8217   0.22836   0.21914  -0.0723  0.3222  1.0000  -1.2289   0.0000   0.3079
  25.000   0.8460   0.23473   0.22580  -0.0806  0.3000  1.0000  -1.2460   0.0000   0.3134


