XFLR5 v6.09.05 beta

 Calculated polar for: -25S1223

 1 1 Reynolds number fixed          Mach number fixed         

 xtrf =   1.000 (top)        1.000 (bottom)
 Mach =   0.000     Re =     0.220 e 6     Ncrit =   9.000

  alpha     CL        CD       CDp       Cm    Top Xtr Bot Xtr   Cpmin    Chinge    XCp    
 ------- -------- --------- --------- -------- ------- ------- -------- --------- ---------
   0.000  -0.2114   0.08442   0.07975  -0.0237  0.5078  0.0279  -1.5989   0.0000   0.1338
   1.000  -0.1817   0.06754   0.06279  -0.0298  0.4925  0.0311  -1.5982   0.0000   0.0850
   2.000  -0.1131   0.05534   0.05042  -0.0372  0.4781  0.0364  -1.4776   0.0000  -0.0740
   3.000  -0.0197   0.03935   0.03346  -0.0455  0.4639  0.0471  -1.5930   0.0000  -1.9806
   4.000   0.0830   0.03082   0.02419  -0.0468  0.4512  0.0676  -1.3141   0.0000   0.7825
   5.000   0.2047   0.02065   0.01216  -0.0427  0.4399  0.0294  -1.5823   0.0000   0.4403
   6.000   0.3110   0.01905   0.01042  -0.0401  0.4277  0.0452  -1.0097   0.0000   0.3620
   7.000   0.4124   0.01825   0.00968  -0.0361  0.4176  0.0527  -1.1027   0.0000   0.3212
   8.000   0.4937   0.02029   0.01397  -0.0259  0.4080  0.7940  -1.1941   0.0000   0.2857
   9.000   0.5749   0.02380   0.01736  -0.0136  0.3990  0.8447  -1.2961   0.0000   0.2560
  10.000   0.6572   0.02641   0.01994  -0.0051  0.3879  0.8815  -1.4071   0.0000   0.2390
  11.000   0.9798   0.02226   0.01578  -0.0465  0.3720  1.0000  -1.7549   0.0000   0.2783
  12.000   1.0745   0.02273   0.01617  -0.0436  0.3612  1.0000  -1.9303   0.0000   0.2698
  14.000   1.2422   0.02549   0.01943  -0.0363  0.3356  1.0000  -2.3721   0.0000   0.2550
  15.000   1.3259   0.02634   0.02049  -0.0325  0.3217  1.0000  -2.6789   0.0000   0.2483
  16.000   1.4070   0.02635   0.02081  -0.0288  0.3053  1.0000  -2.9930   0.0000   0.2422
  17.000   1.4874   0.02613   0.02083  -0.0251  0.2861  1.0000  -3.3212   0.0000   0.2363
  19.000   1.4845   0.03431   0.02948  -0.0042  0.2471  0.8891  -3.6945   0.0000   0.2177
  21.000   1.4678   0.05904   0.05439  -0.0211  0.1868  0.8742  -3.9218   0.0000   0.2245
  23.000   1.4367   0.08919   0.08474  -0.0374  0.1351  0.8660  -4.0549   0.0000   0.2315
  24.000   1.4124   0.10745   0.10330  -0.0480  0.1187  0.8626  -4.0933   0.0000   0.2372
  25.000   1.3801   0.12816   0.12443  -0.0599  0.1054  0.8597  -4.0915   0.0000   0.2447


