XFLR5 v6.09.05 beta

 Calculated polar for: -25S1223

 1 1 Reynolds number fixed          Mach number fixed         

 xtrf =   1.000 (top)        1.000 (bottom)
 Mach =   0.000     Re =     0.250 e 6     Ncrit =   9.000

  alpha     CL        CD       CDp       Cm    Top Xtr Bot Xtr   Cpmin    Chinge    XCp    
 ------- -------- --------- --------- -------- ------- ------- -------- --------- ---------
   0.000  -0.2147   0.08316   0.07853  -0.0202  0.4974  0.0274  -1.5522   0.0000   0.1520
   1.000  -0.1612   0.06936   0.06465  -0.0327  0.4839  0.0279  -1.6441   0.0000   0.0468
   2.000  -0.1111   0.05136   0.04637  -0.0401  0.4706  0.0310  -1.7043   0.0000  -0.1051
   3.000  -0.0192   0.03988   0.03431  -0.0446  0.4552  0.0393  -1.5409   0.0000  -1.9951
   4.000   0.0849   0.02920   0.02272  -0.0465  0.4430  0.0532  -1.3630   0.0000   0.7659
   5.000   0.2063   0.01980   0.01144  -0.0428  0.4318  0.0268  -1.5704   0.0000   0.4388
   6.000   0.3123   0.01797   0.00955  -0.0401  0.4205  0.0410  -1.0232   0.0000   0.3614
   7.000   0.4171   0.01694   0.00848  -0.0368  0.4101  0.0466  -1.1154   0.0000   0.3216
   8.000   0.5089   0.01796   0.01161  -0.0297  0.4008  0.7817  -1.2155   0.0000   0.2915
   9.000   0.5778   0.02253   0.01616  -0.0146  0.3898  0.8300  -1.3054   0.0000   0.2575
  10.000   0.6653   0.02355   0.01726  -0.0058  0.3827  0.8707  -1.4241   0.0000   0.2398
  11.000   0.9924   0.01979   0.01329  -0.0478  0.3668  1.0000  -1.7799   0.0000   0.2788
  12.000   1.0811   0.02157   0.01519  -0.0444  0.3548  1.0000  -1.9434   0.0000   0.2702
  13.000   1.1708   0.02223   0.01610  -0.0413  0.3438  1.0000  -2.1429   0.0000   0.2627
  14.000   1.2635   0.02225   0.01623  -0.0384  0.3316  1.0000  -2.4213   0.0000   0.2560
  15.000   1.3438   0.02357   0.01784  -0.0345  0.3178  1.0000  -2.7214   0.0000   0.2493
  16.000   1.4335   0.02290   0.01726  -0.0316  0.3009  1.0000  -3.0573   0.0000   0.2435
  17.000   1.3401   0.02521   0.01971   0.0082  0.2915  0.9686  -3.0666   0.0000   0.2135
  18.000   1.5361   0.02484   0.01974  -0.0142  0.2617  0.9940  -3.6462   0.0000   0.2264
  19.000   1.5260   0.03126   0.02631  -0.0066  0.2393  0.8866  -3.8090   0.0000   0.2191
  21.000   1.4904   0.05800   0.05346  -0.0247  0.1790  0.8653  -3.9855   0.0000   0.2266
  22.000   1.4636   0.07576   0.07141  -0.0359  0.1523  0.8590  -4.0196   0.0000   0.2323
  23.000   1.4466   0.09261   0.08836  -0.0455  0.1300  0.8546  -4.0692   0.0000   0.2369
  24.000   1.4297   0.10834   0.10417  -0.0528  0.1112  0.8520  -4.1536   0.0000   0.2401
  25.000   1.4188   0.12303   0.11888  -0.0596  0.0937  0.8503  -4.2928   0.0000   0.2427


