XFLR5 v6.09.05 beta

 Calculated polar for: -25S1223

 1 1 Reynolds number fixed          Mach number fixed         

 xtrf =   1.000 (top)        1.000 (bottom)
 Mach =   0.000     Re =     0.130 e 6     Ncrit =   9.000

  alpha     CL        CD       CDp       Cm    Top Xtr Bot Xtr   Cpmin    Chinge    XCp    
 ------- -------- --------- --------- -------- ------- ------- -------- --------- ---------
   0.000  -0.1996   0.08679   0.08194  -0.0185  0.5433  0.0538  -1.2273   0.0000   0.1515
   1.000  -0.1609   0.07773   0.07257  -0.0356  0.5308  0.0626  -1.4044   0.0000   0.0268
   2.000  -0.1134   0.06285   0.05790  -0.0372  0.5151  0.0709  -1.2616   0.0000  -0.0757
   3.000  -0.0340   0.05115   0.04568  -0.0428  0.5014  0.0929  -1.1741   0.0000  -0.9750
   4.000   0.0579   0.04362   0.03773  -0.0451  0.4878  0.1434  -0.9988   0.0000   0.9921
   5.000   0.1916   0.02910   0.02052  -0.0445  0.4750  0.0451  -1.4790   0.0000   0.4659
   6.000   0.2936   0.02675   0.01795  -0.0406  0.4636  0.0638  -1.0011   0.0000   0.3730
   7.000   0.3757   0.02843   0.01996  -0.0348  0.4497  0.0787  -1.0068   0.0000   0.3274
   8.000   0.4165   0.03457   0.02854  -0.0182  0.4362  0.8402  -1.0443   0.0000   0.2781
   9.000   0.4962   0.03557   0.02904  -0.0035  0.4276  0.9112  -1.1616   0.0000   0.2403
  10.000   0.4976   0.04934   0.04332  -0.0056  0.4029  0.9260  -1.1027   0.0000   0.2445
  11.000   0.5836   0.04964   0.04330   0.0024  0.3941  0.9421  -1.2435   0.0000   0.2275
  12.000   0.7770   0.06227   0.05615  -0.0364  0.3651  0.9876  -1.3964   0.0000   0.2784
  13.000   0.6948   0.06264   0.05633  -0.0007  0.3591  0.9696  -1.3916   0.0000   0.2303
  14.000   0.5756   0.07617   0.06994   0.0064  0.3332  0.9515  -1.2141   0.0000   0.2171
  15.000   0.6175   0.08554   0.07934   0.0006  0.3089  0.9454  -1.2659   0.0000   0.2261
  16.000   0.7443   0.08607   0.07989   0.0000  0.2962  0.9403  -1.5390   0.0000   0.2247
  18.000   0.7683   0.11113   0.10524  -0.0141  0.2440  0.9314  -1.6155   0.0000   0.2408
  19.000   0.7903   0.12460   0.11888  -0.0218  0.2212  0.9271  -1.6617   0.0000   0.2489
  20.000   0.8322   0.13508   0.12951  -0.0287  0.1990  0.9230  -1.7647   0.0000   0.2540
  21.000   0.9433   0.13248   0.12722  -0.0303  0.1844  0.9189  -2.1708   0.0000   0.2479
  22.000   0.9455   0.15074   0.14568  -0.0413  0.1611  0.9159  -2.1438   0.0000   0.2584
  23.000   0.9034   0.18029   0.17543  -0.0570  0.1424  0.9138  -1.8153   0.0000   0.2788
  24.000   0.9274   0.19525   0.19055  -0.0663  0.1321  0.9120  -1.8089   0.0000   0.2856


