XFLR5 v6.09.05 beta

 Calculated polar for: -25S1223

 1 1 Reynolds number fixed          Mach number fixed         

 xtrf =   1.000 (top)        1.000 (bottom)
 Mach =   0.000     Re =     0.045 e 6     Ncrit =   9.000

  alpha     CL        CD       CDp       Cm    Top Xtr Bot Xtr   Cpmin    Chinge    XCp    
 ------- -------- --------- --------- -------- ------- ------- -------- --------- ---------
   0.000  -0.1627   0.10550   0.10009  -0.0353  0.7025  0.2324  -0.9716   0.0000   0.0220
   1.000  -0.1375   0.09900   0.09382  -0.0434  0.6908  0.2725  -0.9746   0.0000  -0.0748
   2.000  -0.1007   0.08602   0.08112  -0.0441  0.6820  0.3195  -0.9284   0.0000  -0.1961
   3.000  -0.0672   0.07778   0.07303  -0.0399  0.6694  0.3757  -0.8802   0.0000  -0.3501
   4.000  -0.0523   0.07073   0.06641  -0.0232  0.6703  0.5679  -0.8167   0.0000  -0.1942
   5.000  -0.0769   0.06452   0.05834  -0.0678  0.8972  0.1317  -1.3403   0.0000  -0.6336
   6.000   0.0432   0.05998   0.05222  -0.0764  0.8644  0.1364  -1.3210   0.0000   1.9996
   7.000   0.1833   0.06090   0.05160  -0.0792  0.7973  0.1370  -1.0932   0.0000   0.6715
   8.000   0.2378   0.06544   0.05613  -0.0685  0.7427  0.1940  -1.0460   0.0000   0.5269
  10.000   0.4042   0.08173   0.07297  -0.0629  0.6742  1.0000  -0.7554   0.0000   0.3933
  11.000   0.4325   0.08840   0.07922  -0.0561  0.6405  1.0000  -0.7846   0.0000   0.3662
  12.000   0.4699   0.09650   0.08700  -0.0507  0.6049  1.0000  -0.8295   0.0000   0.3431
  13.000   0.4787   0.10133   0.09165  -0.0432  0.5717  1.0000  -0.8420   0.0000   0.3243
  14.000   0.4970   0.10778   0.09795  -0.0376  0.5375  1.0000  -0.8744   0.0000   0.3084
  15.000   0.5088   0.11440   0.10451  -0.0338  0.5082  1.0000  -0.8875   0.0000   0.2980
  16.000   0.5376   0.12314   0.11325  -0.0328  0.4774  1.0000  -0.9273   0.0000   0.2914
  17.000   0.5981   0.13917   0.12935  -0.0351  0.4565  1.0000  -1.0205   0.0000   0.2880
  18.000   0.6836   0.16060   0.15101  -0.0391  0.4239  1.0000  -1.1740   0.0000   0.2849
  19.000   0.6661   0.15827   0.14884  -0.0390  0.3933  1.0000  -1.1483   0.0000   0.2852
  20.000   0.6745   0.16572   0.15647  -0.0433  0.3678  1.0000  -1.1343   0.0000   0.2898
  21.000   0.7053   0.17780   0.16874  -0.0488  0.3439  1.0000  -1.1496   0.0000   0.2935
  22.000   0.7868   0.20791   0.19915  -0.0545  0.3238  1.0000  -1.2914   0.0000   0.2918
  23.000   0.7913   0.20656   0.19825  -0.0607  0.2969  1.0000  -1.2543   0.0000   0.2977
  24.000   0.8079   0.21589   0.20777  -0.0700  0.2835  1.0000  -1.2095   0.0000   0.3064


