XFLR5 v6.09.05 beta

 Calculated polar for: -25S1223

 1 1 Reynolds number fixed          Mach number fixed         

 xtrf =   1.000 (top)        1.000 (bottom)
 Mach =   0.000     Re =     0.065 e 6     Ncrit =   9.000

  alpha     CL        CD       CDp       Cm    Top Xtr Bot Xtr   Cpmin    Chinge    XCp    
 ------- -------- --------- --------- -------- ------- ------- -------- --------- ---------
   0.000  -0.1997   0.10613   0.10104  -0.0391  0.6222  0.1368  -1.1863   0.0000   0.0460
   1.000  -0.1530   0.09147   0.08654  -0.0366  0.6074  0.1636  -1.0550   0.0000   0.0035
   2.000  -0.1088   0.08702   0.08192  -0.0464  0.5954  0.2002  -1.0528   0.0000  -0.1820
   3.000  -0.0592   0.07309   0.06828  -0.0454  0.5802  0.2419  -0.9445   0.0000  -0.5173
   4.000   0.0045   0.06541   0.06045  -0.0461  0.5716  0.2881  -0.8815   0.0000  10.2897
   5.000   0.1609   0.05157   0.04365  -0.0642  0.5638  0.1058  -1.2779   0.0000   0.6377
   6.000   0.2503   0.05109   0.04247  -0.0668  0.5581  0.1037  -1.0916   0.0000   0.5066
   7.000   0.2347   0.05960   0.05112  -0.0748  0.6578  0.1054  -1.0487   0.0000   0.5587
   8.000   0.3165   0.06654   0.05985  -0.0633  0.6385  0.5068  -1.0385   0.0000   0.4394
  10.000   0.4809   0.07891   0.07151  -0.0643  0.5718  1.0000  -0.8449   0.0000   0.3711
  11.000   0.4796   0.08388   0.07621  -0.0549  0.5406  1.0000  -0.8471   0.0000   0.3507
  12.000   0.4894   0.09027   0.08240  -0.0479  0.5130  1.0000  -0.8638   0.0000   0.3329
  13.000   0.5821   0.10555   0.09746  -0.0474  0.4936  1.0000  -0.9797   0.0000   0.3151
  15.000   0.5589   0.11177   0.10356  -0.0319  0.4323  1.0000  -0.9781   0.0000   0.2881
  16.000   0.5593   0.11938   0.11118  -0.0281  0.4106  1.0000  -0.9815   0.0000   0.2802
  17.000   0.6662   0.13983   0.13176  -0.0285  0.3893  1.0000  -1.1774   0.0000   0.2712
  18.000   0.6420   0.13957   0.13160  -0.0281  0.3606  1.0000  -1.1508   0.0000   0.2711
  19.000   0.6478   0.14821   0.14039  -0.0316  0.3348  1.0000  -1.1514   0.0000   0.2750
  20.000   0.6832   0.16226   0.15460  -0.0362  0.3193  1.0000  -1.1893   0.0000   0.2781
  21.000   0.7808   0.18743   0.17999  -0.0404  0.2933  1.0000  -1.3781   0.0000   0.2746
  22.000   0.7643   0.18626   0.17899  -0.0465  0.2673  1.0000  -1.3049   0.0000   0.2827
  23.000   0.7743   0.19668   0.18978  -0.0562  0.2518  1.0000  -1.2380   0.0000   0.2935
  24.000   0.8622   0.22911   0.22251  -0.0601  0.2359  1.0000  -1.4229   0.0000   0.2880
  25.000   0.8473   0.22317   0.21670  -0.0724  0.2164  1.0000  -1.3104   0.0000   0.3027


