XFLR5 v6.09.05 beta

 Calculated polar for: -25S1223

 1 1 Reynolds number fixed          Mach number fixed         

 xtrf =   1.000 (top)        1.000 (bottom)
 Mach =   0.000     Re =     0.255 e 6     Ncrit =   9.000

  alpha     CL        CD       CDp       Cm    Top Xtr Bot Xtr   Cpmin    Chinge    XCp    
 ------- -------- --------- --------- -------- ------- ------- -------- --------- ---------
   0.000  -0.2159   0.08258   0.07796  -0.0195  0.4951  0.0271  -1.5472   0.0000   0.1556
   1.000  -0.1620   0.06926   0.06457  -0.0323  0.4826  0.0278  -1.6367   0.0000   0.0500
   2.000  -0.1096   0.05033   0.04530  -0.0410  0.4695  0.0305  -1.7713   0.0000  -0.1181
   3.000  -0.0201   0.03960   0.03407  -0.0446  0.4542  0.0378  -1.5431   0.0000  -1.8908
   4.000   0.0853   0.02883   0.02233  -0.0465  0.4418  0.0521  -1.3781   0.0000   0.7636
   5.000   0.2063   0.01956   0.01121  -0.0428  0.4304  0.0265  -1.5789   0.0000   0.4386
   6.000   0.3125   0.01773   0.00934  -0.0400  0.4196  0.0402  -1.0282   0.0000   0.3612
   7.000   0.4178   0.01675   0.00832  -0.0369  0.4089  0.0458  -1.1174   0.0000   0.3217
   9.000   0.5804   0.02221   0.01587  -0.0154  0.3893  0.8279  -1.3086   0.0000   0.2586
  10.000   0.6667   0.02325   0.01699  -0.0061  0.3817  0.8688  -1.4266   0.0000   0.2402
  11.000   0.9941   0.01947   0.01297  -0.0480  0.3660  1.0000  -1.7831   0.0000   0.2789
  12.000   1.0829   0.02122   0.01486  -0.0446  0.3543  1.0000  -1.9468   0.0000   0.2703
  13.000   1.1730   0.02185   0.01573  -0.0416  0.3430  1.0000  -2.1471   0.0000   0.2628
  14.000   1.2659   0.02188   0.01585  -0.0387  0.3309  1.0000  -2.4271   0.0000   0.2561
  15.000   1.3464   0.02318   0.01747  -0.0348  0.3171  1.0000  -2.7275   0.0000   0.2495
  16.000   1.4367   0.02249   0.01683  -0.0320  0.3001  1.0000  -3.0651   0.0000   0.2437
  17.000   1.3303   0.02497   0.01949   0.0105  0.2915  0.9675  -3.0509   0.0000   0.2117
  18.000   1.5218   0.02463   0.01952  -0.0109  0.2621  0.9922  -3.6185   0.0000   0.2243
  21.000   1.4942   0.05806   0.05355  -0.0257  0.1777  0.8637  -3.9948   0.0000   0.2272
  22.000   1.4678   0.07600   0.07167  -0.0372  0.1511  0.8571  -4.0294   0.0000   0.2331
  23.000   1.4475   0.09281   0.08858  -0.0458  0.1292  0.8532  -4.0730   0.0000   0.2371
  24.000   1.4264   0.10869   0.10454  -0.0525  0.1105  0.8511  -4.1465   0.0000   0.2400
  25.000   1.4148   0.12350   0.11938  -0.0594  0.0933  0.8493  -4.2804   0.0000   0.2428


