XFLR5 v6.09.05 beta

 Calculated polar for: -25S1223

 1 1 Reynolds number fixed          Mach number fixed         

 xtrf =   1.000 (top)        1.000 (bottom)
 Mach =   0.000     Re =     0.115 e 6     Ncrit =   9.000

  alpha     CL        CD       CDp       Cm    Top Xtr Bot Xtr   Cpmin    Chinge    XCp    
 ------- -------- --------- --------- -------- ------- ------- -------- --------- ---------
   1.000  -0.1703   0.07673   0.07188  -0.0290  0.5389  0.0701  -1.2441   0.0000   0.0764
   2.000  -0.1093   0.06490   0.05967  -0.0422  0.5268  0.0873  -1.3252   0.0000  -0.1345
   3.000  -0.0364   0.05483   0.04948  -0.0442  0.5089  0.1145  -1.1462   0.0000  -0.9373
   5.000   0.1833   0.03212   0.02372  -0.0461  0.4846  0.0503  -1.4715   0.0000   0.4856
   6.000   0.2820   0.03072   0.02220  -0.0426  0.4698  0.0696  -1.0314   0.0000   0.3863
   7.000   0.3688   0.03063   0.02188  -0.0340  0.4607  0.0888  -0.9931   0.0000   0.3272
   8.000   0.3946   0.04195   0.03603  -0.0265  0.4418  0.8391  -0.9697   0.0000   0.3027
   9.000   0.4318   0.04588   0.03970  -0.0080  0.4311  0.9159  -1.0284   0.0000   0.2529
  10.000   0.4618   0.05416   0.04792  -0.0062  0.4160  0.9402  -1.0391   0.0000   0.2470
  11.000   0.4047   0.06786   0.06180  -0.0065  0.4319  0.9388  -0.9175   0.0000   0.2495
  12.000   0.4549   0.07088   0.06456  -0.0010  0.3981  0.9467  -0.9925   0.0000   0.2339
  13.000   0.4720   0.07838   0.07200   0.0003  0.3765  0.9529  -1.0071   0.0000   0.2301
  14.000   0.5389   0.09260   0.08621   0.0023  0.3888  0.9673  -1.0923   0.0000   0.2258
  15.000   0.6129   0.08592   0.07933   0.0055  0.3283  0.9620  -1.2648   0.0000   0.2184
  16.000   0.6032   0.10019   0.09376  -0.0029  0.3052  0.9567  -1.2084   0.0000   0.2316
  17.000   0.6555   0.10873   0.10243  -0.0078  0.2783  0.9511  -1.3132   0.0000   0.2371
  18.000   0.7114   0.11813   0.11192  -0.0136  0.2550  0.9460  -1.4522   0.0000   0.2427
  19.000   0.8259   0.11957   0.11345  -0.0150  0.2372  0.9414  -1.7884   0.0000   0.2388
  20.000   0.8419   0.13186   0.12609  -0.0223  0.2117  0.9386  -1.8199   0.0000   0.2457
  21.000   0.8431   0.14813   0.14257  -0.0315  0.1879  0.9359  -1.7815   0.0000   0.2557
  22.000   0.8365   0.16812   0.16276  -0.0432  0.1682  0.9332  -1.6694   0.0000   0.2696
  23.000   0.8501   0.19321   0.18809  -0.0541  0.1814  0.9307  -1.5314   0.0000   0.2814
  24.000   0.8531   0.20896   0.20400  -0.0689  0.1735  0.9280  -1.3927   0.0000   0.2981
  25.000   0.9102   0.22233   0.21758  -0.0756  0.1614  0.9257  -1.5433   0.0000   0.2979


