XFLR5 v6.09.05 beta

 Calculated polar for: -25S1223

 1 1 Reynolds number fixed          Mach number fixed         

 xtrf =   1.000 (top)        1.000 (bottom)
 Mach =   0.000     Re =     0.210 e 6     Ncrit =   9.000

  alpha     CL        CD       CDp       Cm    Top Xtr Bot Xtr   Cpmin    Chinge    XCp    
 ------- -------- --------- --------- -------- ------- ------- -------- --------- ---------
   0.000  -0.2272   0.08053   0.07591  -0.0221  0.5123  0.0297  -1.6577   0.0000   0.1483
   1.000  -0.1810   0.06909   0.06430  -0.0276  0.4943  0.0329  -1.4905   0.0000   0.0963
   2.000  -0.1102   0.05590   0.05093  -0.0378  0.4813  0.0397  -1.4728   0.0000  -0.0875
   3.000  -0.0223   0.04102   0.03533  -0.0447  0.4672  0.0489  -1.4899   0.0000  -1.6890
   4.000   0.0806   0.03180   0.02530  -0.0466  0.4540  0.0699  -1.2676   0.0000   0.7962
   5.000   0.2034   0.02084   0.01232  -0.0426  0.4429  0.0307  -1.5893   0.0000   0.4414
   6.000   0.3093   0.01911   0.01049  -0.0397  0.4313  0.0472  -1.0131   0.0000   0.3618
   7.000   0.4105   0.01881   0.01018  -0.0359  0.4200  0.0548  -1.0979   0.0000   0.3212
   8.000   0.4905   0.02124   0.01491  -0.0253  0.4107  0.8008  -1.1877   0.0000   0.2847
  10.000   0.6470   0.02704   0.02051  -0.0034  0.3894  0.8858  -1.3948   0.0000   0.2366
  12.000   1.0690   0.02367   0.01715  -0.0431  0.3631  1.0000  -1.9194   0.0000   0.2696
  13.000   1.1491   0.02602   0.01977  -0.0392  0.3504  1.0000  -2.1009   0.0000   0.2617
  14.000   1.2322   0.02704   0.02103  -0.0355  0.3369  1.0000  -2.3487   0.0000   0.2547
  15.000   1.3181   0.02757   0.02167  -0.0318  0.3229  1.0000  -2.6604   0.0000   0.2480
  16.000   1.3941   0.02799   0.02250  -0.0277  0.3067  1.0000  -2.9620   0.0000   0.2417
  18.000   1.3666   0.03251   0.02744   0.0079  0.2767  0.9024  -3.2524   0.0000   0.2116
  19.000   1.4563   0.03639   0.03160  -0.0029  0.2500  0.8907  -3.6190   0.0000   0.2169
  20.000   1.4650   0.04834   0.04373  -0.0137  0.2199  0.8821  -3.7748   0.0000   0.2219
  21.000   1.4478   0.06143   0.05686  -0.0211  0.1904  0.8772  -3.8592   0.0000   0.2248
  22.000   1.4370   0.07492   0.07031  -0.0282  0.1614  0.8733  -3.9515   0.0000   0.2274
  23.000   1.4215   0.09053   0.08610  -0.0365  0.1383  0.8699  -4.0073   0.0000   0.2312
  24.000   1.3867   0.11009   0.10605  -0.0469  0.1216  0.8669  -3.9987   0.0000   0.2373
  25.000   1.3477   0.13176   0.12810  -0.0589  0.1084  0.8641  -3.9501   0.0000   0.2453


