XFLR5 v6.09.05 beta

 Calculated polar for: -25S1223

 1 1 Reynolds number fixed          Mach number fixed         

 xtrf =   1.000 (top)        1.000 (bottom)
 Mach =   0.000     Re =     0.135 e 6     Ncrit =   9.000

  alpha     CL        CD       CDp       Cm    Top Xtr Bot Xtr   Cpmin    Chinge    XCp    
 ------- -------- --------- --------- -------- ------- ------- -------- --------- ---------
   0.000  -0.2031   0.08604   0.08118  -0.0186  0.5412  0.0507  -1.2637   0.0000   0.1530
   1.000  -0.1709   0.07498   0.07005  -0.0289  0.5279  0.0590  -1.3056   0.0000   0.0785
   2.000  -0.1118   0.06135   0.05633  -0.0389  0.5125  0.0680  -1.3258   0.0000  -0.0950
   3.000  -0.0308   0.04970   0.04406  -0.0439  0.4991  0.0901  -1.2257   0.0000  -1.1373
   4.000   0.0611   0.04280   0.03693  -0.0449  0.4846  0.1289  -1.0102   0.0000   0.9500
   6.000   0.2954   0.02613   0.01727  -0.0404  0.4611  0.0626  -0.9933   0.0000   0.3711
   7.000   0.3795   0.02729   0.01883  -0.0347  0.4469  0.0768  -1.0164   0.0000   0.3261
   8.000   0.4251   0.03226   0.02612  -0.0165  0.4353  0.8411  -1.0708   0.0000   0.2728
   9.000   0.5105   0.03377   0.02717  -0.0040  0.4263  0.9085  -1.1856   0.0000   0.2411
  10.000   0.5104   0.04693   0.04092  -0.0036  0.4014  0.9219  -1.1333   0.0000   0.2399
  11.000   0.6115   0.04591   0.03953   0.0040  0.3937  0.9410  -1.2967   0.0000   0.2248
  12.000   0.9058   0.05597   0.04986  -0.0498  0.3638  1.0000  -1.5706   0.0000   0.2862
  13.000   0.9888   0.05467   0.04852  -0.0404  0.3554  1.0000  -1.7716   0.0000   0.2700
  14.000   0.6066   0.07281   0.06664   0.0077  0.3312  0.9481  -1.2795   0.0000   0.2153
  15.000   0.6417   0.08419   0.07808  -0.0006  0.3056  0.9413  -1.3114   0.0000   0.2278
  16.000   0.7642   0.08276   0.07667   0.0015  0.2955  0.9370  -1.5925   0.0000   0.2225
  17.000   0.7804   0.09432   0.08836  -0.0059  0.2683  0.9317  -1.6456   0.0000   0.2307
  18.000   0.7941   0.10787   0.10208  -0.0140  0.2427  0.9268  -1.6898   0.0000   0.2397
  19.000   0.8146   0.12203   0.11640  -0.0228  0.2189  0.9224  -1.7327   0.0000   0.2488
  20.000   0.8489   0.13414   0.12883  -0.0308  0.1960  0.9184  -1.8094   0.0000   0.2555
  21.000   0.9716   0.12880   0.12364  -0.0306  0.1840  0.9146  -2.2741   0.0000   0.2467
  22.000   0.9663   0.14634   0.14137  -0.0401  0.1606  0.9125  -2.2422   0.0000   0.2556
  23.000   0.9329   0.17289   0.16811  -0.0541  0.1400  0.9105  -1.9872   0.0000   0.2725
  24.000   0.9211   0.19646   0.19185  -0.0680  0.1299  0.9084  -1.7659   0.0000   0.2883
  25.000   0.9075   0.22476   0.22037  -0.0848  0.1484  0.9063  -1.4610   0.0000   0.3086


