XFLR5 v6.09.05 beta

 Calculated polar for: -25S1223

 1 1 Reynolds number fixed          Mach number fixed         

 xtrf =   1.000 (top)        1.000 (bottom)
 Mach =   0.000     Re =     0.345 e 6     Ncrit =   9.000

  alpha     CL        CD       CDp       Cm    Top Xtr Bot Xtr   Cpmin    Chinge    XCp    
 ------- -------- --------- --------- -------- ------- ------- -------- --------- ---------
   0.000  -0.2251   0.07861   0.07435  -0.0170  0.4794  0.0185  -1.6320   0.0000   0.1705
   1.000  -0.1851   0.06555   0.06112  -0.0280  0.4621  0.0199  -1.6502   0.0000   0.0983
   2.000  -0.1121   0.05102   0.04636  -0.0387  0.4508  0.0224  -1.6763   0.0000  -0.0887
   3.000  -0.0062   0.03807   0.03252  -0.0446  0.4365  0.0277  -1.7293   0.0000  -6.6557
   4.000   0.0912   0.02519   0.01860  -0.0465  0.4226  0.0343  -1.5833   0.0000   0.7292
   5.000   0.2085   0.01681   0.00885  -0.0428  0.4145  0.0215  -1.6764   0.0000   0.4360
   6.000   0.3178   0.01532   0.00721  -0.0403  0.4036  0.0292  -1.0747   0.0000   0.3597
   7.000   0.4240   0.01489   0.00668  -0.0379  0.3897  0.0390  -1.1362   0.0000   0.3227
   8.000   0.5272   0.01432   0.00817  -0.0351  0.3846  0.6454  -1.2415   0.0000   0.2994
   9.000   0.6191   0.01833   0.01228  -0.0257  0.3768  0.8050  -1.3540   0.0000   0.2736
  10.000   0.6965   0.01987   0.01381  -0.0138  0.3678  0.8356  -1.4680   0.0000   0.2506
  11.000   0.8446   0.02026   0.01419  -0.0157  0.3552  0.9240  -1.6546   0.0000   0.2486
  12.000   0.9466   0.02054   0.01464  -0.0140  0.3474  0.9357  -1.8260   0.0000   0.2434
  13.000   1.0762   0.01969   0.01377  -0.0184  0.3357  0.9529  -2.0540   0.0000   0.2441
  14.000   1.1564   0.02076   0.01492  -0.0135  0.3230  0.9540  -2.2672   0.0000   0.2370
  16.000   1.3308   0.02056   0.01504  -0.0068  0.2938  0.9676  -2.8985   0.0000   0.2265
  18.000   1.4869   0.02170   0.01687  -0.0007  0.2550  0.9762  -3.5684   0.0000   0.2175
  19.000   1.4292   0.02457   0.01984   0.0244  0.2359  0.9522  -3.6446   0.0000   0.1979
  20.000   1.5405   0.03992   0.03540  -0.0123  0.1902  0.8832  -4.0207   0.0000   0.2202
  22.000   1.4885   0.07602   0.07170  -0.0423  0.1327  0.8403  -4.1007   0.0000   0.2361
  23.000   1.4539   0.09449   0.09027  -0.0513  0.1099  0.8372  -4.1131   0.0000   0.2408
  24.000   1.4312   0.11197   0.10782  -0.0606  0.0912  0.8344  -4.1721   0.0000   0.2456
  25.000   1.4214   0.12863   0.12458  -0.0706  0.0781  0.8316  -4.2918   0.0000   0.2506


