XFLR5 v6.09.05 beta

 Calculated polar for: -25S1223

 1 1 Reynolds number fixed          Mach number fixed         

 xtrf =   1.000 (top)        1.000 (bottom)
 Mach =   0.000     Re =     0.235 e 6     Ncrit =   9.000

  alpha     CL        CD       CDp       Cm    Top Xtr Bot Xtr   Cpmin    Chinge    XCp    
 ------- -------- --------- --------- -------- ------- ------- -------- --------- ---------
   0.000  -0.2128   0.08398   0.07934  -0.0220  0.5030  0.0278  -1.5728   0.0000   0.1426
   1.000  -0.1763   0.06529   0.06052  -0.0346  0.4895  0.0291  -1.8104   0.0000   0.0530
   2.000  -0.1134   0.05383   0.04892  -0.0380  0.4740  0.0332  -1.5534   0.0000  -0.0796
   3.000  -0.0079   0.04334   0.03743  -0.0445  0.4578  0.0438  -1.5285   0.0000  -5.2023
   4.000   0.0846   0.03046   0.02397  -0.0464  0.4469  0.0577  -1.3290   0.0000   0.7667
   5.000   0.2066   0.02088   0.01252  -0.0430  0.4356  0.0277  -1.5304   0.0000   0.4398
   6.000   0.3119   0.01887   0.01034  -0.0402  0.4229  0.0430  -1.0120   0.0000   0.3622
   7.000   0.4149   0.01755   0.00903  -0.0365  0.4137  0.0495  -1.1093   0.0000   0.3214
   8.000   0.5007   0.01904   0.01272  -0.0276  0.4042  0.7866  -1.2048   0.0000   0.2882
   9.000   0.5770   0.02255   0.01610  -0.0137  0.3955  0.8377  -1.3047   0.0000   0.2559
  10.000   0.6602   0.02462   0.01826  -0.0051  0.3854  0.8759  -1.4153   0.0000   0.2388
  11.000   0.9867   0.02090   0.01441  -0.0472  0.3693  1.0000  -1.7686   0.0000   0.2786
  12.000   1.0749   0.02279   0.01632  -0.0437  0.3562  1.0000  -1.9322   0.0000   0.2698
  13.000   1.1635   0.02347   0.01730  -0.0405  0.3461  1.0000  -2.1289   0.0000   0.2623
  14.000   1.2543   0.02364   0.01753  -0.0375  0.3337  1.0000  -2.4000   0.0000   0.2555
  15.000   1.3356   0.02482   0.01904  -0.0336  0.3198  1.0000  -2.7020   0.0000   0.2488
  16.000   1.4222   0.02440   0.01880  -0.0303  0.3032  1.0000  -3.0295   0.0000   0.2429
  17.000   1.4996   0.02473   0.01946  -0.0265  0.2834  1.0000  -3.3539   0.0000   0.2370
  19.000   1.5123   0.03240   0.02752  -0.0059  0.2431  0.8874  -3.7696   0.0000   0.2187
  21.000   1.4837   0.05763   0.05298  -0.0222  0.1821  0.8698  -3.9696   0.0000   0.2250
  22.000   1.4542   0.07470   0.07026  -0.0319  0.1557  0.8645  -4.0000   0.0000   0.2297
  23.000   1.4394   0.09126   0.08693  -0.0418  0.1328  0.8601  -4.0540   0.0000   0.2345
  24.000   1.4369   0.10602   0.10176  -0.0507  0.1132  0.8564  -4.1771   0.0000   0.2384
  25.000   1.4131   0.12496   0.12098  -0.0618  0.0992  0.8537  -4.2464   0.0000   0.2446


