XFLR5 v6.09.05 beta

 Calculated polar for: -25S1223

 1 1 Reynolds number fixed          Mach number fixed         

 xtrf =   1.000 (top)        1.000 (bottom)
 Mach =   0.000     Re =     0.085 e 6     Ncrit =   9.000

  alpha     CL        CD       CDp       Cm    Top Xtr Bot Xtr   Cpmin    Chinge    XCp    
 ------- -------- --------- --------- -------- ------- ------- -------- --------- ---------
   0.000  -0.1840   0.09310   0.08823  -0.0247  0.5795  0.0927  -1.1174   0.0000   0.1072
   1.000  -0.1620   0.08902   0.08384  -0.0400  0.5691  0.1097  -1.2553   0.0000  -0.0021
   2.000  -0.1062   0.07814   0.07305  -0.0458  0.5525  0.1377  -1.1710   0.0000  -0.1833
   3.000  -0.0517   0.06516   0.06015  -0.0431  0.5381  0.1731  -1.0092   0.0000  -0.5748
   4.000   0.0470   0.05256   0.04656  -0.0505  0.5281  0.1219  -1.1314   0.0000   1.2957
   5.000   0.1716   0.04271   0.03456  -0.0564  0.5149  0.0686  -1.4179   0.0000   0.5663
   6.000   0.2685   0.04200   0.03336  -0.0531  0.5014  0.0848  -1.0502   0.0000   0.4355
   7.000   0.3373   0.04462   0.03589  -0.0439  0.4933  0.1054  -0.9185   0.0000   0.3675
   8.000   0.3548   0.05273   0.04652  -0.0382  0.4867  0.8513  -0.9254   0.0000   0.3450
   9.000   0.2987   0.06460   0.05864  -0.0369  0.5425  0.8893  -0.9238   0.0000   0.3610
  11.000   0.6665   0.09024   0.08337  -0.0678  0.4944  1.0000  -1.0643   0.0000   0.3375
  12.000   0.6057   0.08990   0.08296  -0.0530  0.4635  1.0000  -1.0170   0.0000   0.3220
  13.000   0.5799   0.09537   0.08837  -0.0447  0.4342  1.0000  -0.9925   0.0000   0.3104
  14.000   0.6518   0.10962   0.10253  -0.0423  0.4226  1.0000  -1.1001   0.0000   0.2969
  15.000   0.6830   0.11391   0.10679  -0.0356  0.3913  1.0000  -1.1836   0.0000   0.2823
  16.000   0.6159   0.11745   0.11037  -0.0291  0.3651  1.0000  -1.0845   0.0000   0.2766
  17.000   0.6138   0.12618   0.11914  -0.0252  0.3479  1.0000  -1.0977   0.0000   0.2693
  18.000   0.7209   0.14126   0.13432  -0.0210  0.3242  1.0000  -1.3638   0.0000   0.2550
  19.000   0.6571   0.14286   0.13604  -0.0238  0.3008  1.0000  -1.2176   0.0000   0.2617
  20.000   0.6746   0.15430   0.14763  -0.0286  0.2789  1.0000  -1.2186   0.0000   0.2669
  21.000   0.7620   0.17454   0.16804  -0.0315  0.2635  1.0000  -1.3992   0.0000   0.2636
  22.000   0.8110   0.18751   0.18138  -0.0360  0.2359  1.0000  -1.5053   0.0000   0.2647
  23.000   0.7704   0.19132   0.18533  -0.0491  0.2212  1.0000  -1.2777   0.0000   0.2840
  24.000   0.8426   0.21451   0.20874  -0.0532  0.2085  1.0000  -1.4323   0.0000   0.2810
  25.000   0.8456   0.21746   0.21184  -0.0659  0.1893  1.0000  -1.3614   0.0000   0.2946


