XFLR5 v6.09.05 beta

 Calculated polar for: -25S1223

 1 1 Reynolds number fixed          Mach number fixed         

 xtrf =   1.000 (top)        1.000 (bottom)
 Mach =   0.000     Re =     0.040 e 6     Ncrit =   9.000

  alpha     CL        CD       CDp       Cm    Top Xtr Bot Xtr   Cpmin    Chinge    XCp    
 ------- -------- --------- --------- -------- ------- ------- -------- --------- ---------
   1.000  -0.1268   0.09533   0.09009  -0.0426  0.7236  0.3174  -0.9416   0.0000  -0.0952
   2.000  -0.0718   0.08286   0.07791  -0.0406  0.7147  0.3751  -0.8667   0.0000  -0.3255
   3.000  -0.0001   0.07373   0.06899  -0.0245  0.6998  0.6216  -0.7524   0.0000  -172.1117
   4.000  -0.0410   0.06973   0.06544  -0.0208  0.7160  0.6453  -0.8080   0.0000  -0.2580
   7.000   0.0519   0.05884   0.05026  -0.0685  0.9225  0.1448  -1.2502   0.0000   1.5501
   8.000   0.1960   0.06382   0.05415  -0.0687  0.8125  0.1857  -1.0603   0.0000   0.5885
  10.000   0.3466   0.07795   0.06884  -0.0579  0.7138  1.0000  -0.7055   0.0000   0.4044
  11.000   0.3986   0.08697   0.07729  -0.0543  0.6762  1.0000  -0.7498   0.0000   0.3724
  12.000   0.4388   0.09550   0.08546  -0.0496  0.6407  1.0000  -0.7928   0.0000   0.3482
  13.000   0.4726   0.10370   0.09343  -0.0447  0.6053  1.0000  -0.8299   0.0000   0.3285
  14.000   0.4980   0.11091   0.10048  -0.0398  0.5703  1.0000  -0.8689   0.0000   0.3128
  15.000   0.5178   0.11751   0.10701  -0.0363  0.5366  1.0000  -0.8937   0.0000   0.3018
  16.000   0.5430   0.12543   0.11493  -0.0351  0.5033  1.0000  -0.9285   0.0000   0.2951
  17.000   0.5669   0.13424   0.12382  -0.0358  0.4750  1.0000  -0.9646   0.0000   0.2925
  18.000   0.6011   0.14479   0.13461  -0.0378  0.4450  1.0000  -1.0182   0.0000   0.2912
  19.000   0.6667   0.16463   0.15461  -0.0424  0.4221  1.0000  -1.1297   0.0000   0.2905
  21.000   0.7229   0.18287   0.17328  -0.0501  0.3607  1.0000  -1.1826   0.0000   0.2935
  22.000   0.7381   0.19160   0.18222  -0.0569  0.3399  1.0000  -1.1727   0.0000   0.3001
  23.000   0.7824   0.20905   0.20017  -0.0633  0.3207  1.0000  -1.2147   0.0000   0.3023
  24.000   0.8247   0.22272   0.21415  -0.0700  0.2965  1.0000  -1.2542   0.0000   0.3045
  25.000   0.8407   0.23176   0.22340  -0.0797  0.2836  1.0000  -1.2353   0.0000   0.3130


