XFLR5 v6.09.05 beta

 Calculated polar for: -5s1223

 1 1 Reynolds number fixed          Mach number fixed         

 xtrf =   1.000 (top)        1.000 (bottom)
 Mach =   0.000     Re =     0.060 e 6     Ncrit =   9.000

  alpha     CL        CD       CDp       Cm    Top Xtr Bot Xtr   Cpmin    Chinge    XCp    
 ------- -------- --------- --------- -------- ------- ------- -------- --------- ---------
   0.000   0.5501   0.05048   0.04445  -0.1465  0.6579  0.3276  -1.0421   0.0000   0.5151
   1.000   0.9690   0.03029   0.02136  -0.2306  0.6189  0.2971  -1.2770   0.0000   0.4849
   2.000   1.0532   0.03355   0.02491  -0.2234  0.5927  0.5629  -1.3650   0.0000   0.4577
   3.000   1.1528   0.03642   0.02779  -0.2230  0.5718  0.6923  -1.4501   0.0000   0.4375
   4.000   1.2021   0.04250   0.03404  -0.2157  0.5541  1.0000  -1.5001   0.0000   0.4222
   5.000   1.2346   0.05306   0.04460  -0.2100  0.5366  1.0000  -1.5290   0.0000   0.4116
   6.000   1.1588   0.07589   0.06778  -0.2011  0.5237  1.0000  -1.4210   0.0000   0.4141
   8.000   0.9490   0.13019   0.12300  -0.2084  0.5815  1.0000  -1.0410   0.0000   0.4589
   9.000   0.9939   0.14131   0.13393  -0.2079  0.5439  1.0000  -1.0919   0.0000   0.4469
  10.000   1.0319   0.15316   0.14572  -0.2082  0.5109  1.0000  -1.1370   0.0000   0.4378
  11.000   1.0734   0.16590   0.15847  -0.2091  0.4807  1.0000  -1.1928   0.0000   0.4291
  12.000   1.1919   0.18883   0.18153  -0.2103  0.4533  1.0000  -1.3998   0.0000   0.4087
  13.000   1.2095   0.19805   0.19091  -0.2105  0.4191  1.0000  -1.4596   0.0000   0.4044
  14.000   1.2071   0.20517   0.19818  -0.2130  0.3859  1.0000  -1.4843   0.0000   0.4050
  15.000   1.2145   0.21498   0.20817  -0.2175  0.3548  1.0000  -1.5048   0.0000   0.4057
  16.000   1.2217   0.22955   0.22295  -0.2239  0.3301  1.0000  -1.4903   0.0000   0.4079
  17.000   1.2450   0.24690   0.24075  -0.2284  0.3075  1.0000  -1.5150   0.0000   0.4061


