XFLR5 v6.09.05 beta

 Calculated polar for: -5s1223

 1 1 Reynolds number fixed          Mach number fixed         

 xtrf =   1.000 (top)        1.000 (bottom)
 Mach =   0.000     Re =     0.270 e 6     Ncrit =   9.000

  alpha     CL        CD       CDp       Cm    Top Xtr Bot Xtr   Cpmin    Chinge    XCp    
 ------- -------- --------- --------- -------- ------- ------- -------- --------- ---------
   0.000   0.8757   0.01640   0.00809  -0.2269  0.4680  0.0352  -1.2665   0.0000   0.5065
   1.000   1.0136   0.01596   0.00733  -0.2318  0.4454  0.0454  -1.3936   0.0000   0.4746
   2.000   1.1511   0.01590   0.00766  -0.2369  0.4287  0.3412  -1.5376   0.0000   0.4501
   3.000   1.2730   0.01688   0.00862  -0.2386  0.4143  0.4167  -1.6715   0.0000   0.4302
   4.000   1.3878   0.01711   0.00977  -0.2388  0.4036  0.8289  -1.8035   0.0000   0.4132
   5.000   1.4808   0.01792   0.01048  -0.2341  0.3935  1.0000  -1.9276   0.0000   0.3976
   6.000   1.5941   0.02006   0.01259  -0.2348  0.3815  1.0000  -2.0798   0.0000   0.3851
   7.000   1.6980   0.02122   0.01389  -0.2332  0.3734  1.0000  -2.2552   0.0000   0.3734
   8.000   1.7989   0.02241   0.01512  -0.2312  0.3618  1.0000  -2.4558   0.0000   0.3627
   9.000   1.8983   0.02477   0.01767  -0.2296  0.3477  1.0000  -2.7297   0.0000   0.3532
  10.000   1.9847   0.02565   0.01889  -0.2249  0.3367  1.0000  -3.0661   0.0000   0.3435
  11.000   2.0680   0.02677   0.02009  -0.2199  0.3191  1.0000  -3.4129   0.0000   0.3344
  12.000   2.1259   0.02802   0.02181  -0.2102  0.3041  1.0000  -3.7224   0.0000   0.3248
  13.000   2.1731   0.03004   0.02395  -0.1991  0.2855  1.0000  -4.0605   0.0000   0.3153
  14.000   2.2050   0.03275   0.02728  -0.1868  0.2667  1.0000  -4.3713   0.0000   0.3061
  15.000   2.2096   0.03831   0.03312  -0.1735  0.2369  1.0000  -4.6220   0.0000   0.2975
  16.000   2.1618   0.05204   0.04702  -0.1638  0.1977  1.0000  -4.7296   0.0000   0.2921
  17.000   2.0771   0.07473   0.07007  -0.1623  0.1668  1.0000  -4.7076   0.0000   0.2917
  18.000   1.9779   0.10278   0.09849  -0.1673  0.1432  1.0000  -4.6050   0.0000   0.2954
  19.000   1.9047   0.12771   0.12365  -0.1752  0.1201  1.0000  -4.5428   0.0000   0.3001
  20.000   1.8602   0.14765   0.14373  -0.1841  0.0995  1.0000  -4.5694   0.0000   0.3043
  21.000   1.8353   0.16552   0.16173  -0.1927  0.0843  1.0000  -4.6840   0.0000   0.3075
  22.000   1.8234   0.18221   0.17868  -0.2008  0.0742  1.0000  -5.0541   0.0000   0.3095


