XFLR5 v6.09.05 beta

 Calculated polar for: -5s1223

 1 1 Reynolds number fixed          Mach number fixed         

 xtrf =   1.000 (top)        1.000 (bottom)
 Mach =   0.000     Re =     0.225 e 6     Ncrit =   9.000

  alpha     CL        CD       CDp       Cm    Top Xtr Bot Xtr   Cpmin    Chinge    XCp    
 ------- -------- --------- --------- -------- ------- ------- -------- --------- ---------
   0.000   0.8718   0.01776   0.00924  -0.2263  0.4827  0.0407  -1.2595   0.0000   0.5070
   1.000   1.0166   0.01691   0.00788  -0.2327  0.4566  0.0521  -1.3905   0.0000   0.4748
   2.000   1.1482   0.01724   0.00878  -0.2364  0.4418  0.3620  -1.5283   0.0000   0.4503
   3.000   1.2686   0.01787   0.00940  -0.2378  0.4272  0.4388  -1.6618   0.0000   0.4302
   4.000   1.3719   0.01859   0.01100  -0.2354  0.4145  0.9045  -1.7807   0.0000   0.4128
   5.000   1.4759   0.01971   0.01205  -0.2334  0.4048  1.0000  -1.9124   0.0000   0.3978
   6.000   1.5853   0.02115   0.01346  -0.2329  0.3938  1.0000  -2.0651   0.0000   0.3848
   7.000   1.6920   0.02388   0.01618  -0.2326  0.3815  1.0000  -2.2400   0.0000   0.3736
   8.000   1.7891   0.02519   0.01774  -0.2299  0.3716  1.0000  -2.4340   0.0000   0.3628
   9.000   1.8859   0.02638   0.01913  -0.2272  0.3584  1.0000  -2.7013   0.0000   0.3528
  10.000   1.9753   0.02894   0.02194  -0.2239  0.3450  1.0000  -3.0381   0.0000   0.3437
  11.000   2.0535   0.02980   0.02320  -0.2178  0.3297  1.0000  -3.3727   0.0000   0.3343
  12.000   2.1208   0.03109   0.02467  -0.2101  0.3112  1.0000  -3.7006   0.0000   0.3251
  13.000   2.1576   0.03265   0.02664  -0.1970  0.2946  1.0000  -4.0130   0.0000   0.3151
  14.000   2.1835   0.03582   0.03023  -0.1839  0.2757  1.0000  -4.3081   0.0000   0.3057
  15.000   2.1875   0.04105   0.03585  -0.1707  0.2515  1.0000  -4.5550   0.0000   0.2971
  16.000   2.1554   0.05247   0.04767  -0.1614  0.2209  1.0000  -4.7001   0.0000   0.2913
  17.000   2.0761   0.07371   0.06927  -0.1594  0.1890  1.0000  -4.6930   0.0000   0.2905
  18.000   1.9800   0.10076   0.09661  -0.1641  0.1613  1.0000  -4.5990   0.0000   0.2938
  19.000   1.9086   0.12503   0.12103  -0.1718  0.1357  1.0000  -4.5404   0.0000   0.2981
  20.000   1.8637   0.14483   0.14096  -0.1806  0.1131  1.0000  -4.5695   0.0000   0.3023
  21.000   1.8346   0.16357   0.15986  -0.1899  0.0947  1.0000  -4.6709   0.0000   0.3060


