XFLR5 v6.09.05 beta

 Calculated polar for: -5s1223

 1 1 Reynolds number fixed          Mach number fixed         

 xtrf =   1.000 (top)        1.000 (bottom)
 Mach =   0.000     Re =     0.250 e 6     Ncrit =   9.000

  alpha     CL        CD       CDp       Cm    Top Xtr Bot Xtr   Cpmin    Chinge    XCp    
 ------- -------- --------- --------- -------- ------- ------- -------- --------- ---------
   1.000   1.0155   0.01638   0.00757  -0.2323  0.4499  0.0476  -1.3926   0.0000   0.4747
   2.000   1.1496   0.01640   0.00810  -0.2366  0.4343  0.3509  -1.5336   0.0000   0.4501
   3.000   1.2734   0.01759   0.00919  -0.2389  0.4173  0.4269  -1.6681   0.0000   0.4304
   4.000   1.3821   0.01770   0.01028  -0.2375  0.4084  0.8612  -1.7946   0.0000   0.4130
   5.000   1.4790   0.01860   0.01108  -0.2339  0.3981  1.0000  -1.9215   0.0000   0.3977
   6.000   1.5910   0.02048   0.01284  -0.2341  0.3859  1.0000  -2.0751   0.0000   0.3850
   7.000   1.6956   0.02224   0.01476  -0.2329  0.3773  1.0000  -2.2492   0.0000   0.3735
   8.000   1.7951   0.02351   0.01617  -0.2307  0.3658  1.0000  -2.4470   0.0000   0.3627
   9.000   1.8947   0.02532   0.01808  -0.2288  0.3516  1.0000  -2.7213   0.0000   0.3530
  10.000   1.9806   0.02695   0.02010  -0.2244  0.3403  1.0000  -3.0543   0.0000   0.3436
  11.000   2.0619   0.02767   0.02103  -0.2188  0.3245  1.0000  -3.3970   0.0000   0.3342
  12.000   2.1236   0.02924   0.02295  -0.2101  0.3071  1.0000  -3.7131   0.0000   0.3249
  13.000   2.1664   0.03088   0.02483  -0.1981  0.2901  1.0000  -4.0410   0.0000   0.3152
  14.000   2.1963   0.03395   0.02849  -0.1856  0.2706  1.0000  -4.3457   0.0000   0.3059
  15.000   2.2030   0.03927   0.03414  -0.1726  0.2446  1.0000  -4.5999   0.0000   0.2973
  16.000   2.1634   0.05170   0.04680  -0.1629  0.2083  1.0000  -4.7286   0.0000   0.2917
  17.000   2.0734   0.07467   0.07004  -0.1611  0.1768  1.0000  -4.6931   0.0000   0.2913
  18.000   1.9765   0.10209   0.09774  -0.1659  0.1503  1.0000  -4.5969   0.0000   0.2948
  19.000   1.9064   0.12641   0.12229  -0.1737  0.1262  1.0000  -4.5435   0.0000   0.2992
  20.000   1.8598   0.14674   0.14277  -0.1828  0.1048  1.0000  -4.5632   0.0000   0.3036
  21.000   1.8323   0.16509   0.16119  -0.1918  0.0867  1.0000  -4.6692   0.0000   0.3071
  22.000   1.8241   0.18117   0.17770  -0.1996  0.0772  1.0000  -5.0471   0.0000   0.3088


