XFLR5 v6.09.05 beta

 Calculated polar for: -5s1223

 1 1 Reynolds number fixed          Mach number fixed         

 xtrf =   1.000 (top)        1.000 (bottom)
 Mach =   0.000     Re =     0.180 e 6     Ncrit =   9.000

  alpha     CL        CD       CDp       Cm    Top Xtr Bot Xtr   Cpmin    Chinge    XCp    
 ------- -------- --------- --------- -------- ------- ------- -------- --------- ---------
   0.000   0.8687   0.01908   0.01034  -0.2262  0.5029  0.0524  -1.2521   0.0000   0.5079
   1.000   1.0135   0.01814   0.00894  -0.2323  0.4774  0.0617  -1.3808   0.0000   0.4752
   2.000   1.1452   0.01894   0.01016  -0.2360  0.4579  0.3897  -1.5179   0.0000   0.4506
   3.000   1.2662   0.01985   0.01121  -0.2377  0.4443  0.4701  -1.6462   0.0000   0.4306
   4.000   1.3540   0.01992   0.01210  -0.2316  0.4310  1.0000  -1.7540   0.0000   0.4124
   5.000   1.4695   0.02273   0.01458  -0.2327  0.4175  1.0000  -1.8924   0.0000   0.3981
   6.000   1.5740   0.02434   0.01640  -0.2313  0.4087  1.0000  -2.0385   0.0000   0.3851
   7.000   1.6759   0.02622   0.01837  -0.2297  0.3968  1.0000  -2.2111   0.0000   0.3734
   8.000   1.7751   0.02972   0.02185  -0.2282  0.3825  1.0000  -2.4034   0.0000   0.3631
   9.000   1.8617   0.03125   0.02396  -0.2238  0.3710  1.0000  -2.6427   0.0000   0.3528
  10.000   1.9539   0.03268   0.02551  -0.2205  0.3569  1.0000  -2.9848   0.0000   0.3434
  11.000   2.0263   0.03543   0.02864  -0.2143  0.3411  1.0000  -3.3020   0.0000   0.3342
  12.000   2.1018   0.03553   0.02898  -0.2078  0.3222  1.0000  -3.6458   0.0000   0.3250
  13.000   2.1282   0.03804   0.03202  -0.1936  0.3040  1.0000  -3.9257   0.0000   0.3150
  14.000   2.1656   0.04014   0.03426  -0.1822  0.2842  1.0000  -4.2471   0.0000   0.3058
  15.000   2.1468   0.04610   0.04098  -0.1665  0.2636  1.0000  -4.4364   0.0000   0.2968
  16.000   2.1105   0.05767   0.05303  -0.1580  0.2375  1.0000  -4.5650   0.0000   0.2915
  17.000   2.0390   0.07770   0.07337  -0.1567  0.2073  1.0000  -4.5734   0.0000   0.2907
  18.000   1.9626   0.10115   0.09688  -0.1607  0.1758  1.0000  -4.5337   0.0000   0.2929
  19.000   1.9063   0.12248   0.11839  -0.1673  0.1489  1.0000  -4.5182   0.0000   0.2960
  20.000   1.8766   0.13905   0.13510  -0.1741  0.1266  1.0000  -4.5968   0.0000   0.2981


