XFLR5 v6.09.05 beta

 Calculated polar for: -5s1223

 1 1 Reynolds number fixed          Mach number fixed         

 xtrf =   1.000 (top)        1.000 (bottom)
 Mach =   0.000     Re =     0.025 e 6     Ncrit =   9.000

  alpha     CL        CD       CDp       Cm    Top Xtr Bot Xtr   Cpmin    Chinge    XCp    
 ------- -------- --------- --------- -------- ------- ------- -------- --------- ---------
   2.000  -0.0881   0.09261   0.08773   0.0036  0.9496  0.9470  -0.7462   0.0000   0.2781
   3.000  -0.2185   0.09048   0.08602   0.0330  1.0000  0.9285  -0.8220   0.0000   0.3944
   4.000  -0.3275   0.08576   0.08160   0.0553  1.0000  0.8900  -0.9003   0.0000   0.4134
   5.000   0.4116   0.09998   0.09200  -0.1617  1.0000  0.2929  -0.8390   0.0000   0.6378
   7.000   0.6656   0.12338   0.11363  -0.1903  0.9815  1.0000  -0.7650   0.0000   0.5271
   8.000   0.7544   0.13615   0.12549  -0.1996  0.9272  1.0000  -0.8265   0.0000   0.5042
   9.000   0.8306   0.14817   0.13701  -0.2054  0.8621  1.0000  -0.8838   0.0000   0.4852
  10.000   0.8984   0.16129   0.14988  -0.2096  0.8055  1.0000  -0.9459   0.0000   0.4697
  11.000   0.9501   0.17262   0.16110  -0.2116  0.7476  1.0000  -1.0031   0.0000   0.4574
  12.000   1.0110   0.19045   0.17893  -0.2156  0.7041  1.0000  -1.0752   0.0000   0.4463
  13.000   1.0372   0.19618   0.18481  -0.2162  0.6537  1.0000  -1.1163   0.0000   0.4397
  14.000   1.0950   0.21429   0.20325  -0.2196  0.6050  1.0000  -1.2117   0.0000   0.4300
  16.000   1.1798   0.25409   0.24356  -0.2264  0.5264  1.0000  -1.3703   0.0000   0.4175
  17.000   1.1947   0.26296   0.25271  -0.2291  0.4880  1.0000  -1.3784   0.0000   0.4154
  18.000   1.2351   0.28886   0.27934  -0.2328  0.4531  1.0000  -1.4461   0.0000   0.4100
  19.000   1.2671   0.31255   0.30340  -0.2361  0.4178  1.0000  -1.4890   0.0000   0.4056
  20.000   1.2420   0.30865   0.29979  -0.2403  0.3911  1.0000  -1.3968   0.0000   0.4104
  21.000   1.2440   0.32695   0.31844  -0.2435  0.3660  1.0000  -1.3840   0.0000   0.4104
  22.000   1.2785   0.36128   0.35321  -0.2458  0.3480  1.0000  -1.4462   0.0000   0.4045
  23.000   1.1848   0.36216   0.35508  -0.2313  0.3180  1.0000  -1.3031   0.0000   0.4060


