XFLR5 v6.09.05 beta

 Calculated polar for: -5s1223

 1 1 Reynolds number fixed          Mach number fixed         

 xtrf =   1.000 (top)        1.000 (bottom)
 Mach =   0.000     Re =     0.210 e 6     Ncrit =   9.000

  alpha     CL        CD       CDp       Cm    Top Xtr Bot Xtr   Cpmin    Chinge    XCp    
 ------- -------- --------- --------- -------- ------- ------- -------- --------- ---------
   0.000   0.8700   0.01850   0.00985  -0.2259  0.4876  0.0435  -1.2568   0.0000   0.5072
   1.000   1.0144   0.01711   0.00807  -0.2322  0.4640  0.0550  -1.3874   0.0000   0.4749
   2.000   1.1483   0.01776   0.00922  -0.2365  0.4467  0.3724  -1.5255   0.0000   0.4504
   3.000   1.2675   0.01840   0.00987  -0.2376  0.4324  0.4465  -1.6569   0.0000   0.4303
   5.000   1.4739   0.02051   0.01273  -0.2331  0.4093  1.0000  -1.9063   0.0000   0.3978
   6.000   1.5820   0.02203   0.01430  -0.2324  0.3981  1.0000  -2.0571   0.0000   0.3849
   7.000   1.6891   0.02421   0.01636  -0.2319  0.3861  1.0000  -2.2353   0.0000   0.3735
   8.000   1.7852   0.02639   0.01883  -0.2294  0.3755  1.0000  -2.4254   0.0000   0.3628
   9.000   1.8792   0.02770   0.02047  -0.2262  0.3620  1.0000  -2.6848   0.0000   0.3528
  10.000   1.9712   0.03048   0.02336  -0.2235  0.3475  1.0000  -3.0258   0.0000   0.3438
  11.000   2.0456   0.03142   0.02472  -0.2168  0.3331  1.0000  -3.3521   0.0000   0.3343
  12.000   2.1192   0.03248   0.02595  -0.2102  0.3137  1.0000  -3.6923   0.0000   0.3252
  13.000   2.1505   0.03409   0.02808  -0.1962  0.2973  1.0000  -3.9910   0.0000   0.3151
  14.000   2.1760   0.03711   0.03146  -0.1830  0.2788  1.0000  -4.2851   0.0000   0.3057
  15.000   2.1788   0.04217   0.03687  -0.1696  0.2547  1.0000  -4.5294   0.0000   0.2970
  16.000   2.1439   0.05362   0.04875  -0.1602  0.2260  1.0000  -4.6663   0.0000   0.2912
  17.000   2.0688   0.07426   0.06983  -0.1584  0.1955  1.0000  -4.6681   0.0000   0.2903
  18.000   1.9760   0.10072   0.09661  -0.1630  0.1672  1.0000  -4.5817   0.0000   0.2935
  19.000   1.9077   0.12439   0.12047  -0.1705  0.1411  1.0000  -4.5306   0.0000   0.2976
  20.000   1.8671   0.14333   0.13953  -0.1789  0.1183  1.0000  -4.5737   0.0000   0.3012
  21.000   1.8389   0.16167   0.15800  -0.1879  0.0995  1.0000  -4.6820   0.0000   0.3047


