XFLR5 v6.09.05 beta

 Calculated polar for: -5s1223

 1 1 Reynolds number fixed          Mach number fixed         

 xtrf =   1.000 (top)        1.000 (bottom)
 Mach =   0.000     Re =     0.310 e 6     Ncrit =   9.000

  alpha     CL        CD       CDp       Cm    Top Xtr Bot Xtr   Cpmin    Chinge    XCp    
 ------- -------- --------- --------- -------- ------- ------- -------- --------- ---------
   0.000   0.8790   0.01600   0.00773  -0.2274  0.4536  0.0319  -1.2707   0.0000   0.5062
   1.000   1.0166   0.01510   0.00669  -0.2324  0.4363  0.0431  -1.4000   0.0000   0.4744
   2.000   1.1559   0.01544   0.00725  -0.2379  0.4171  0.3215  -1.5436   0.0000   0.4501
   3.000   1.2735   0.01584   0.00781  -0.2386  0.4070  0.3999  -1.6777   0.0000   0.4300
   4.000   1.3978   0.01628   0.00883  -0.2410  0.3953  0.6728  -1.8188   0.0000   0.4135
   5.000   1.4881   0.01757   0.01028  -0.2358  0.3825  1.0000  -1.9367   0.0000   0.3980
   6.000   1.5966   0.01849   0.01131  -0.2350  0.3761  1.0000  -2.0886   0.0000   0.3850
   7.000   1.7023   0.01963   0.01248  -0.2338  0.3663  1.0000  -2.2658   0.0000   0.3733
   8.000   1.8049   0.02108   0.01386  -0.2323  0.3538  1.0000  -2.4683   0.0000   0.3628
   9.000   1.9023   0.02274   0.01589  -0.2299  0.3435  1.0000  -2.7428   0.0000   0.3530
  10.000   1.9910   0.02360   0.01694  -0.2257  0.3306  1.0000  -3.0850   0.0000   0.3435
  11.000   2.0717   0.02505   0.01857  -0.2203  0.3134  1.0000  -3.4264   0.0000   0.3343
  12.000   2.1308   0.02609   0.01999  -0.2106  0.2989  1.0000  -3.7413   0.0000   0.3247
  13.000   2.1808   0.02824   0.02238  -0.2001  0.2817  1.0000  -4.0852   0.0000   0.3154
  14.000   2.2159   0.03110   0.02558  -0.1883  0.2588  1.0000  -4.4052   0.0000   0.3063
  15.000   2.2151   0.03739   0.03205  -0.1746  0.2173  1.0000  -4.6453   0.0000   0.2977
  16.000   2.1528   0.05356   0.04833  -0.1652  0.1752  1.0000  -4.7136   0.0000   0.2931
  17.000   2.0621   0.07783   0.07300  -0.1646  0.1490  1.0000  -4.6714   0.0000   0.2934
  18.000   1.9635   0.10622   0.10176  -0.1701  0.1280  1.0000  -4.5675   0.0000   0.2974
  19.000   1.8944   0.13073   0.12651  -0.1780  0.1073  1.0000  -4.5163   0.0000   0.3021
  20.000   1.8592   0.14917   0.14515  -0.1861  0.0907  1.0000  -4.5702   0.0000   0.3054
  21.000   1.8440   0.16531   0.16156  -0.1937  0.0790  1.0000  -4.7256   0.0000   0.3074
  22.000   1.8284   0.18256   0.17899  -0.2020  0.0687  1.0000  -5.1141   0.0000   0.3098


