XFLR5 v6.09.05 beta

 Calculated polar for: -5s1223

 1 1 Reynolds number fixed          Mach number fixed         

 xtrf =   1.000 (top)        1.000 (bottom)
 Mach =   0.000     Re =     0.320 e 6     Ncrit =   9.000

  alpha     CL        CD       CDp       Cm    Top Xtr Bot Xtr   Cpmin    Chinge    XCp    
 ------- -------- --------- --------- -------- ------- ------- -------- --------- ---------
   0.000   0.8774   0.01592   0.00774  -0.2270  0.4526  0.0312  -1.2706   0.0000   0.5061
   1.000   1.0173   0.01494   0.00656  -0.2325  0.4341  0.0424  -1.4014   0.0000   0.4744
   2.000   1.1557   0.01523   0.00709  -0.2378  0.4161  0.3159  -1.5445   0.0000   0.4501
   3.000   1.2740   0.01562   0.00765  -0.2386  0.4052  0.3975  -1.6794   0.0000   0.4300
   4.000   1.3979   0.01614   0.00864  -0.2411  0.3933  0.6458  -1.8204   0.0000   0.4135
   5.000   1.4885   0.01723   0.01002  -0.2359  0.3818  1.0000  -1.9385   0.0000   0.3979
   6.000   1.5973   0.01818   0.01107  -0.2351  0.3747  1.0000  -2.0905   0.0000   0.3849
   7.000   1.7031   0.01930   0.01219  -0.2339  0.3648  1.0000  -2.2680   0.0000   0.3733
   8.000   1.8075   0.02113   0.01394  -0.2329  0.3509  1.0000  -2.4713   0.0000   0.3630
   9.000   1.9032   0.02233   0.01554  -0.2300  0.3423  1.0000  -2.7457   0.0000   0.3530
  10.000   1.9921   0.02319   0.01655  -0.2258  0.3293  1.0000  -3.0886   0.0000   0.3435
  11.000   2.0720   0.02460   0.01818  -0.2202  0.3124  1.0000  -3.4285   0.0000   0.3343
  12.000   2.1320   0.02570   0.01961  -0.2107  0.2977  1.0000  -3.7457   0.0000   0.3247
  13.000   2.1833   0.02784   0.02203  -0.2005  0.2806  1.0000  -4.0924   0.0000   0.3155
  14.000   2.2166   0.03087   0.02533  -0.1884  0.2561  1.0000  -4.4088   0.0000   0.3063
  15.000   2.2143   0.03738   0.03199  -0.1747  0.2113  1.0000  -4.6456   0.0000   0.2978
  16.000   2.1551   0.05341   0.04816  -0.1656  0.1700  1.0000  -4.7210   0.0000   0.2931
  17.000   2.0645   0.07770   0.07286  -0.1650  0.1447  1.0000  -4.6797   0.0000   0.2935
  18.000   1.9672   0.10592   0.10147  -0.1703  0.1250  1.0000  -4.5801   0.0000   0.2974
  19.000   1.8969   0.13062   0.12641  -0.1782  0.1052  1.0000  -4.5257   0.0000   0.3021
  20.000   1.8589   0.14950   0.14546  -0.1865  0.0889  1.0000  -4.5694   0.0000   0.3057
  21.000   1.8451   0.16541   0.16165  -0.1939  0.0776  1.0000  -4.7313   0.0000   0.3075
  22.000   1.8303   0.18254   0.17901  -0.2022  0.0680  1.0000  -5.1337   0.0000   0.3098


