XFLR5 v6.09.05 beta

 Calculated polar for: -5s1223

 1 1 Reynolds number fixed          Mach number fixed         

 xtrf =   1.000 (top)        1.000 (bottom)
 Mach =   0.000     Re =     0.045 e 6     Ncrit =   9.000

  alpha     CL        CD       CDp       Cm    Top Xtr Bot Xtr   Cpmin    Chinge    XCp    
 ------- -------- --------- --------- -------- ------- ------- -------- --------- ---------
   0.000   0.5205   0.05805   0.05154  -0.1582  0.7118  0.2360  -0.9715   0.0000   0.5533
   1.000   0.8869   0.03916   0.02996  -0.2233  0.6757  0.1812  -1.1877   0.0000   0.4992
   2.000   0.9154   0.04493   0.03707  -0.2087  0.6471  0.5744  -1.2101   0.0000   0.4743
   3.000   0.9313   0.05571   0.04785  -0.2039  0.6266  0.6664  -1.1937   0.0000   0.4642
   4.000   0.8547   0.07648   0.06910  -0.1999  0.6196  0.7020  -1.0623   0.0000   0.4785
   5.000   0.9031   0.09099   0.08345  -0.2055  0.6355  1.0000  -1.0704   0.0000   0.4709
   6.000   0.7815   0.11191   0.10503  -0.2068  0.7470  1.0000  -0.8756   0.0000   0.5075
   7.000   0.8659   0.12479   0.11691  -0.2113  0.7103  1.0000  -0.9433   0.0000   0.4852
   8.000   0.9613   0.14120   0.13282  -0.2156  0.6727  1.0000  -1.0376   0.0000   0.4638
   9.000   0.9444   0.14565   0.13724  -0.2091  0.6250  1.0000  -1.0157   0.0000   0.4594
  10.000   0.9881   0.15671   0.14818  -0.2095  0.5842  1.0000  -1.0632   0.0000   0.4483
  11.000   1.0323   0.16816   0.15960  -0.2103  0.5431  1.0000  -1.1217   0.0000   0.4383
  12.000   1.0685   0.18026   0.17177  -0.2120  0.5097  1.0000  -1.1749   0.0000   0.4312
  13.000   1.1051   0.19216   0.18391  -0.2142  0.4751  1.0000  -1.2409   0.0000   0.4248
  14.000   1.1414   0.20570   0.19759  -0.2170  0.4440  1.0000  -1.3176   0.0000   0.4192
  15.000   1.2081   0.23151   0.22362  -0.2190  0.4165  1.0000  -1.4629   0.0000   0.4084
  16.000   1.2566   0.25312   0.24549  -0.2211  0.3824  1.0000  -1.5587   0.0000   0.4010
  18.000   1.2470   0.26649   0.25958  -0.2326  0.3251  1.0000  -1.4899   0.0000   0.4074
  19.000   1.2586   0.28488   0.27821  -0.2380  0.3017  1.0000  -1.4721   0.0000   0.4077
  20.000   1.3205   0.32131   0.31499  -0.2377  0.2846  1.0000  -1.6038   0.0000   0.3962
  21.000   1.2803   0.32444   0.31834  -0.2452  0.2632  1.0000  -1.4716   0.0000   0.4054


