XFLR5 v6.09.05 beta

 Calculated polar for: -5s1223

 1 1 Reynolds number fixed          Mach number fixed         

 xtrf =   1.000 (top)        1.000 (bottom)
 Mach =   0.000     Re =     0.080 e 6     Ncrit =   9.000

  alpha     CL        CD       CDp       Cm    Top Xtr Bot Xtr   Cpmin    Chinge    XCp    
 ------- -------- --------- --------- -------- ------- ------- -------- --------- ---------
   0.000   0.8535   0.02653   0.01733  -0.2266  0.6034  0.0945  -1.2067   0.0000   0.5135
   1.000   1.0045   0.02515   0.01597  -0.2335  0.5719  0.3191  -1.3305   0.0000   0.4791
   2.000   1.1022   0.02784   0.01895  -0.2299  0.5477  0.5096  -1.4319   0.0000   0.4537
   3.000   1.2200   0.02979   0.02066  -0.2313  0.5289  0.6318  -1.5456   0.0000   0.4332
   4.000   1.2855   0.03239   0.02385  -0.2229  0.5121  1.0000  -1.6219   0.0000   0.4156
   5.000   1.3832   0.03663   0.02779  -0.2215  0.4969  1.0000  -1.7374   0.0000   0.4008
   6.000   1.4432   0.04425   0.03570  -0.2160  0.4829  1.0000  -1.8204   0.0000   0.3888
   7.000   1.4536   0.05506   0.04715  -0.2058  0.4658  1.0000  -1.8596   0.0000   0.3794
  12.000   1.1575   0.17098   0.16468  -0.2073  0.3916  1.0000  -1.3658   0.0000   0.4110
  13.000   1.1765   0.18301   0.17683  -0.2103  0.3617  1.0000  -1.4133   0.0000   0.4088
  14.000   1.2496   0.20371   0.19767  -0.2103  0.3473  1.0000  -1.6037   0.0000   0.3963
  15.000   1.2911   0.21607   0.21020  -0.2110  0.3154  1.0000  -1.7289   0.0000   0.3891


