XFLR5 v6.09.05 beta

 Calculated polar for: -5s1223

 1 1 Reynolds number fixed          Mach number fixed         

 xtrf =   1.000 (top)        1.000 (bottom)
 Mach =   0.000     Re =     0.345 e 6     Ncrit =   9.000

  alpha     CL        CD       CDp       Cm    Top Xtr Bot Xtr   Cpmin    Chinge    XCp    
 ------- -------- --------- --------- -------- ------- ------- -------- --------- ---------
   0.000   0.8697   0.01616   0.00824  -0.2251  0.4494  0.0295  -1.2681   0.0000   0.5062
   1.000   1.0188   0.01462   0.00630  -0.2329  0.4286  0.0409  -1.4045   0.0000   0.4744
   2.000   1.1572   0.01468   0.00671  -0.2381  0.4131  0.3107  -1.5479   0.0000   0.4500
   3.000   1.2751   0.01514   0.00727  -0.2388  0.4009  0.3909  -1.6833   0.0000   0.4300
   4.000   1.3991   0.01594   0.00840  -0.2413  0.3875  0.6067  -1.8234   0.0000   0.4136
   5.000   1.4896   0.01653   0.00948  -0.2360  0.3796  1.0000  -1.9427   0.0000   0.3979
   6.000   1.5991   0.01750   0.01051  -0.2354  0.3711  1.0000  -2.0951   0.0000   0.3849
   7.000   1.7049   0.01859   0.01155  -0.2342  0.3612  1.0000  -2.2728   0.0000   0.3733
   8.000   1.8102   0.02055   0.01351  -0.2334  0.3478  1.0000  -2.4762   0.0000   0.3630
   9.000   1.9055   0.02142   0.01474  -0.2303  0.3393  1.0000  -2.7525   0.0000   0.3530
  10.000   1.9943   0.02233   0.01573  -0.2261  0.3261  1.0000  -3.0959   0.0000   0.3434
  11.000   2.0732   0.02364   0.01732  -0.2202  0.3098  1.0000  -3.4340   0.0000   0.3342
  12.000   2.1349   0.02485   0.01879  -0.2111  0.2948  1.0000  -3.7558   0.0000   0.3247
  13.000   2.1901   0.02694   0.02121  -0.2016  0.2777  1.0000  -4.1110   0.0000   0.3156
  14.000   2.2265   0.02991   0.02443  -0.1900  0.2498  1.0000  -4.4357   0.0000   0.3066
  15.000   2.2087   0.03776   0.03222  -0.1746  0.1976  1.0000  -4.6362   0.0000   0.2979
  16.000   2.1499   0.05433   0.04899  -0.1663  0.1580  1.0000  -4.7106   0.0000   0.2936
  17.000   2.0604   0.07878   0.07387  -0.1660  0.1353  1.0000  -4.6708   0.0000   0.2941
  18.000   1.9703   0.10604   0.10156  -0.1711  0.1176  1.0000  -4.5921   0.0000   0.2976
  19.000   1.9046   0.13001   0.12582  -0.1785  0.1010  1.0000  -4.5535   0.0000   0.3018
  20.000   1.8650   0.14914   0.14513  -0.1868  0.0858  1.0000  -4.5934   0.0000   0.3055
  21.000   1.8461   0.16595   0.16214  -0.1948  0.0743  1.0000  -4.7368   0.0000   0.3079
  22.000   1.8357   0.18223   0.17875  -0.2025  0.0661  1.0000  -5.1888   0.0000   0.3097


