XFLR5 v6.09.05 beta

 Calculated polar for: -5s1223

 1 1 Reynolds number fixed          Mach number fixed         

 xtrf =   1.000 (top)        1.000 (bottom)
 Mach =   0.000     Re =     0.290 e 6     Ncrit =   9.000

  alpha     CL        CD       CDp       Cm    Top Xtr Bot Xtr   Cpmin    Chinge    XCp    
 ------- -------- --------- --------- -------- ------- ------- -------- --------- ---------
   0.000   0.8771   0.01607   0.00778  -0.2271  0.4615  0.0334  -1.2689   0.0000   0.5063
   1.000   1.0152   0.01548   0.00698  -0.2321  0.4407  0.0443  -1.3970   0.0000   0.4745
   2.000   1.1535   0.01563   0.00740  -0.2374  0.4223  0.3319  -1.5410   0.0000   0.4501
   3.000   1.2726   0.01633   0.00818  -0.2384  0.4107  0.4052  -1.6743   0.0000   0.4301
   4.000   1.3930   0.01662   0.00930  -0.2399  0.3993  0.7349  -1.8116   0.0000   0.4133
   5.000   1.4836   0.01755   0.01016  -0.2347  0.3883  1.0000  -1.9327   0.0000   0.3977
   6.000   1.5953   0.01920   0.01188  -0.2349  0.3790  1.0000  -2.0844   0.0000   0.3850
   7.000   1.7002   0.02037   0.01314  -0.2335  0.3697  1.0000  -2.2608   0.0000   0.3734
   8.000   1.8017   0.02155   0.01430  -0.2316  0.3582  1.0000  -2.4624   0.0000   0.3627
   9.000   1.9004   0.02366   0.01669  -0.2297  0.3458  1.0000  -2.7367   0.0000   0.3531
  10.000   1.9882   0.02455   0.01784  -0.2253  0.3335  1.0000  -3.0765   0.0000   0.3435
  11.000   2.0715   0.02608   0.01948  -0.2205  0.3152  1.0000  -3.4224   0.0000   0.3345
  12.000   2.1284   0.02699   0.02083  -0.2103  0.3014  1.0000  -3.7322   0.0000   0.3247
  13.000   2.1765   0.02911   0.02314  -0.1995  0.2836  1.0000  -4.0721   0.0000   0.3153
  14.000   2.2117   0.03180   0.02631  -0.1877  0.2629  1.0000  -4.3916   0.0000   0.3062
  15.000   2.2081   0.03807   0.03273  -0.1736  0.2278  1.0000  -4.6241   0.0000   0.2975
  16.000   2.1627   0.05217   0.04706  -0.1647  0.1856  1.0000  -4.7362   0.0000   0.2925
  17.000   2.0702   0.07620   0.07145  -0.1635  0.1573  1.0000  -4.6920   0.0000   0.2926
  18.000   1.9728   0.10422   0.09985  -0.1687  0.1353  1.0000  -4.5935   0.0000   0.2963
  19.000   1.9006   0.12912   0.12498  -0.1766  0.1135  1.0000  -4.5338   0.0000   0.3011
  20.000   1.8600   0.14842   0.14444  -0.1852  0.0945  1.0000  -4.5718   0.0000   0.3049
  21.000   1.8402   0.16535   0.16160  -0.1932  0.0817  1.0000  -4.7074   0.0000   0.3074
  22.000   1.8243   0.18272   0.17913  -0.2016  0.0708  1.0000  -5.0715   0.0000   0.3099


