XFLR5 v6.09.05 beta

 Calculated polar for: -5s1223

 1 1 Reynolds number fixed          Mach number fixed         

 xtrf =   1.000 (top)        1.000 (bottom)
 Mach =   0.000     Re =     0.305 e 6     Ncrit =   9.000

  alpha     CL        CD       CDp       Cm    Top Xtr Bot Xtr   Cpmin    Chinge    XCp    
 ------- -------- --------- --------- -------- ------- ------- -------- --------- ---------
   1.000   1.0163   0.01519   0.00676  -0.2323  0.4374  0.0434  -1.3993   0.0000   0.4744
   2.000   1.1561   0.01556   0.00734  -0.2380  0.4175  0.3249  -1.5432   0.0000   0.4501
   3.000   1.2732   0.01596   0.00790  -0.2385  0.4079  0.4011  -1.6769   0.0000   0.4301
   4.000   1.3974   0.01636   0.00894  -0.2409  0.3963  0.6879  -1.8177   0.0000   0.4135
   5.000   1.4876   0.01767   0.01034  -0.2357  0.3832  1.0000  -1.9357   0.0000   0.3979
   6.000   1.5963   0.01866   0.01145  -0.2350  0.3769  1.0000  -2.0876   0.0000   0.3850
   7.000   1.7018   0.01981   0.01264  -0.2337  0.3671  1.0000  -2.2646   0.0000   0.3733
   8.000   1.8040   0.02115   0.01392  -0.2321  0.3551  1.0000  -2.4668   0.0000   0.3628
   9.000   1.9018   0.02295   0.01608  -0.2299  0.3441  1.0000  -2.7413   0.0000   0.3530
  10.000   1.9904   0.02383   0.01715  -0.2256  0.3313  1.0000  -3.0831   0.0000   0.3435
  11.000   2.0716   0.02529   0.01878  -0.2203  0.3139  1.0000  -3.4254   0.0000   0.3344
  12.000   2.1302   0.02630   0.02019  -0.2105  0.2995  1.0000  -3.7391   0.0000   0.3247
  13.000   2.1796   0.02845   0.02256  -0.2000  0.2822  1.0000  -4.0817   0.0000   0.3154
  14.000   2.2152   0.03125   0.02573  -0.1882  0.2600  1.0000  -4.4027   0.0000   0.3063
  15.000   2.2143   0.03748   0.03216  -0.1745  0.2203  1.0000  -4.6424   0.0000   0.2977
  16.000   2.1555   0.05318   0.04797  -0.1651  0.1778  1.0000  -4.7200   0.0000   0.2929
  17.000   2.0609   0.07788   0.07306  -0.1644  0.1511  1.0000  -4.6675   0.0000   0.2933
  18.000   1.9655   0.10578   0.10134  -0.1698  0.1299  1.0000  -4.5732   0.0000   0.2972
  19.000   1.8956   0.13039   0.12619  -0.1777  0.1089  1.0000  -4.5197   0.0000   0.3019
  20.000   1.8594   0.14899   0.14498  -0.1859  0.0916  1.0000  -4.5708   0.0000   0.3053
  21.000   1.8432   0.16531   0.16156  -0.1935  0.0797  1.0000  -4.7216   0.0000   0.3074
  22.000   1.8276   0.18252   0.17893  -0.2019  0.0690  1.0000  -5.1056   0.0000   0.3098


