XFLR5 v6.09.05 beta

 Calculated polar for: -5s1223

 1 1 Reynolds number fixed          Mach number fixed         

 xtrf =   1.000 (top)        1.000 (bottom)
 Mach =   0.000     Re =     0.145 e 6     Ncrit =   9.000

  alpha     CL        CD       CDp       Cm    Top Xtr Bot Xtr   Cpmin    Chinge    XCp    
 ------- -------- --------- --------- -------- ------- ------- -------- --------- ---------
   0.000   0.8620   0.02177   0.01282  -0.2251  0.5246  0.0647  -1.2414   0.0000   0.5087
   1.000   1.0131   0.01951   0.00998  -0.2326  0.4975  0.0754  -1.3726   0.0000   0.4756
   2.000   1.1398   0.02074   0.01188  -0.2352  0.4785  0.4160  -1.5020   0.0000   0.4510
   3.000   1.2603   0.02167   0.01276  -0.2367  0.4624  0.5040  -1.6297   0.0000   0.4309
   4.000   1.3457   0.02269   0.01453  -0.2305  0.4487  1.0000  -1.7306   0.0000   0.4128
   5.000   1.4540   0.02479   0.01654  -0.2300  0.4364  1.0000  -1.8626   0.0000   0.3981
   6.000   1.5618   0.02709   0.01876  -0.2295  0.4241  1.0000  -2.0133   0.0000   0.3851
   7.000   1.6555   0.03082   0.02272  -0.2270  0.4124  1.0000  -2.1719   0.0000   0.3737
   8.000   1.7435   0.03346   0.02565  -0.2232  0.3985  1.0000  -2.3488   0.0000   0.3628
   9.000   1.8389   0.03712   0.02947  -0.2212  0.3833  1.0000  -2.5859   0.0000   0.3531
  10.000   1.9013   0.04022   0.03321  -0.2135  0.3694  1.0000  -2.8654   0.0000   0.3432
  11.000   1.9961   0.04114   0.03414  -0.2106  0.3528  1.0000  -3.2251   0.0000   0.3342
  13.000   2.1011   0.04503   0.03883  -0.1916  0.3142  1.0000  -3.8383   0.0000   0.3154
  14.000   2.0721   0.04973   0.04422  -0.1720  0.2956  1.0000  -4.0018   0.0000   0.3050
  15.000   2.0530   0.05737   0.05235  -0.1601  0.2758  1.0000  -4.1773   0.0000   0.2975
  16.000   2.0352   0.06729   0.06267  -0.1546  0.2516  1.0000  -4.3440   0.0000   0.2928
  17.000   1.7837   0.11746   0.11354  -0.1673  0.2195  1.0000  -3.7792   0.0000   0.3083
  18.000   1.8421   0.11967   0.11587  -0.1658  0.1927  1.0000  -4.1244   0.0000   0.3015
  19.000   1.8045   0.13822   0.13457  -0.1734  0.1635  1.0000  -4.1346   0.0000   0.3048


