XFLR5 v6.09.05 beta

 Calculated polar for: -5s1223

 1 1 Reynolds number fixed          Mach number fixed         

 xtrf =   1.000 (top)        1.000 (bottom)
 Mach =   0.000     Re =     0.245 e 6     Ncrit =   9.000

  alpha     CL        CD       CDp       Cm    Top Xtr Bot Xtr   Cpmin    Chinge    XCp    
 ------- -------- --------- --------- -------- ------- ------- -------- --------- ---------
   0.000   0.8737   0.01704   0.00864  -0.2266  0.4760  0.0377  -1.2628   0.0000   0.5068
   1.000   1.0162   0.01650   0.00763  -0.2325  0.4510  0.0484  -1.3924   0.0000   0.4747
   2.000   1.1493   0.01656   0.00823  -0.2365  0.4358  0.3531  -1.5326   0.0000   0.4502
   3.000   1.2732   0.01774   0.00930  -0.2388  0.4183  0.4294  -1.6672   0.0000   0.4304
   4.000   1.3801   0.01786   0.01041  -0.2371  0.4096  0.8691  -1.7920   0.0000   0.4130
   5.000   1.4784   0.01880   0.01126  -0.2338  0.3994  1.0000  -1.9198   0.0000   0.3977
   6.000   1.5895   0.02047   0.01281  -0.2337  0.3879  1.0000  -2.0734   0.0000   0.3849
   7.000   1.6950   0.02252   0.01500  -0.2329  0.3782  1.0000  -2.2476   0.0000   0.3735
   8.000   1.7940   0.02382   0.01646  -0.2305  0.3669  1.0000  -2.4446   0.0000   0.3627
   9.000   1.8928   0.02534   0.01809  -0.2284  0.3533  1.0000  -2.7176   0.0000   0.3529
  10.000   1.9795   0.02731   0.02043  -0.2243  0.3412  1.0000  -3.0511   0.0000   0.3436
  11.000   2.0606   0.02802   0.02140  -0.2187  0.3255  1.0000  -3.3931   0.0000   0.3343
  12.000   2.1231   0.02957   0.02326  -0.2101  0.3079  1.0000  -3.7109   0.0000   0.3249
  13.000   2.1649   0.03117   0.02513  -0.1979  0.2910  1.0000  -4.0362   0.0000   0.3151
  14.000   2.1938   0.03429   0.02882  -0.1853  0.2716  1.0000  -4.3385   0.0000   0.3059
  15.000   2.2003   0.03959   0.03446  -0.1722  0.2461  1.0000  -4.5918   0.0000   0.2973
  16.000   2.1635   0.05166   0.04681  -0.1627  0.2109  1.0000  -4.7275   0.0000   0.2916
  17.000   2.0754   0.07430   0.06970  -0.1608  0.1793  1.0000  -4.6973   0.0000   0.2911
  18.000   1.9772   0.10187   0.09756  -0.1656  0.1527  1.0000  -4.5974   0.0000   0.2946
  19.000   1.9069   0.12600   0.12184  -0.1732  0.1273  1.0000  -4.5440   0.0000   0.2989
  20.000   1.8605   0.14629   0.14228  -0.1824  0.1058  1.0000  -4.5649   0.0000   0.3033
  21.000   1.8316   0.16502   0.16114  -0.1916  0.0880  1.0000  -4.6650   0.0000   0.3071
  22.000   1.8237   0.18100   0.17754  -0.1993  0.0779  1.0000  -5.0405   0.0000   0.3087


