XFLR5 v6.09.05 beta

 Calculated polar for: -5s1223

 1 1 Reynolds number fixed          Mach number fixed         

 xtrf =   1.000 (top)        1.000 (bottom)
 Mach =   0.000     Re =     0.175 e 6     Ncrit =   9.000

  alpha     CL        CD       CDp       Cm    Top Xtr Bot Xtr   Cpmin    Chinge    XCp    
 ------- -------- --------- --------- -------- ------- ------- -------- --------- ---------
   0.000   0.8678   0.01935   0.01062  -0.2261  0.5057  0.0544  -1.2506   0.0000   0.5081
   1.000   1.0134   0.01837   0.00912  -0.2323  0.4799  0.0629  -1.3796   0.0000   0.4752
   2.000   1.1436   0.01905   0.01027  -0.2356  0.4609  0.3928  -1.5157   0.0000   0.4505
   3.000   1.2660   0.02016   0.01147  -0.2377  0.4465  0.4745  -1.6443   0.0000   0.4307
   4.000   1.3529   0.02024   0.01240  -0.2314  0.4332  1.0000  -1.7505   0.0000   0.4124
   5.000   1.4682   0.02256   0.01435  -0.2323  0.4204  1.0000  -1.8914   0.0000   0.3980
   6.000   1.5726   0.02480   0.01680  -0.2312  0.4106  1.0000  -2.0353   0.0000   0.3851
   7.000   1.6730   0.02678   0.01892  -0.2293  0.3987  1.0000  -2.2057   0.0000   0.3734
   8.000   1.7750   0.02938   0.02144  -0.2280  0.3852  1.0000  -2.4036   0.0000   0.3629
   9.000   1.8586   0.03194   0.02462  -0.2234  0.3728  1.0000  -2.6352   0.0000   0.3528
  10.000   1.9478   0.03349   0.02636  -0.2196  0.3584  1.0000  -2.9710   0.0000   0.3433
  11.000   2.0231   0.03622   0.02940  -0.2140  0.3426  1.0000  -3.2934   0.0000   0.3343
  12.000   2.0952   0.03644   0.02994  -0.2069  0.3238  1.0000  -3.6294   0.0000   0.3250
  13.000   2.1235   0.03887   0.03284  -0.1931  0.3054  1.0000  -3.9122   0.0000   0.3150
  14.000   2.1649   0.04072   0.03479  -0.1822  0.2849  1.0000  -4.2428   0.0000   0.3059
  15.000   2.1377   0.04718   0.04210  -0.1658  0.2652  1.0000  -4.4109   0.0000   0.2968
  16.000   2.1007   0.05887   0.05427  -0.1575  0.2396  1.0000  -4.5363   0.0000   0.2916
  17.000   2.0291   0.07903   0.07477  -0.1566  0.2097  1.0000  -4.5424   0.0000   0.2911
  18.000   1.9506   0.10304   0.09888  -0.1613  0.1788  1.0000  -4.4932   0.0000   0.2937
  19.000   1.9081   0.12175   0.11761  -0.1664  0.1498  1.0000  -4.5236   0.0000   0.2955
  20.000   1.8811   0.13772   0.13371  -0.1728  0.1274  1.0000  -4.6139   0.0000   0.2972


