XFLR5 v6.09.05 beta

 Calculated polar for: -5s1223

 1 1 Reynolds number fixed          Mach number fixed         

 xtrf =   1.000 (top)        1.000 (bottom)
 Mach =   0.000     Re =     0.325 e 6     Ncrit =   9.000

  alpha     CL        CD       CDp       Cm    Top Xtr Bot Xtr   Cpmin    Chinge    XCp    
 ------- -------- --------- --------- -------- ------- ------- -------- --------- ---------
   0.000   0.8764   0.01592   0.00778  -0.2267  0.4520  0.0308  -1.2704   0.0000   0.5061
   1.000   1.0176   0.01487   0.00650  -0.2326  0.4330  0.0421  -1.4021   0.0000   0.4744
   2.000   1.1560   0.01511   0.00700  -0.2379  0.4155  0.3150  -1.5452   0.0000   0.4500
   3.000   1.2742   0.01552   0.00757  -0.2387  0.4043  0.3962  -1.6802   0.0000   0.4300
   4.000   1.3980   0.01608   0.00857  -0.2411  0.3923  0.6360  -1.8211   0.0000   0.4135
   5.000   1.4887   0.01708   0.00990  -0.2359  0.3814  1.0000  -1.9394   0.0000   0.3979
   6.000   1.5977   0.01804   0.01095  -0.2352  0.3739  1.0000  -2.0915   0.0000   0.3849
   7.000   1.7035   0.01914   0.01205  -0.2340  0.3640  1.0000  -2.2691   0.0000   0.3733
   8.000   1.8089   0.02131   0.01415  -0.2333  0.3490  1.0000  -2.4724   0.0000   0.3631
   9.000   1.9037   0.02214   0.01537  -0.2301  0.3417  1.0000  -2.7471   0.0000   0.3530
  10.000   1.9926   0.02300   0.01637  -0.2259  0.3287  1.0000  -3.0901   0.0000   0.3435
  11.000   2.0722   0.02439   0.01799  -0.2202  0.3119  1.0000  -3.4296   0.0000   0.3343
  12.000   2.1326   0.02551   0.01943  -0.2108  0.2971  1.0000  -3.7478   0.0000   0.3247
  13.000   2.1846   0.02765   0.02186  -0.2007  0.2800  1.0000  -4.0960   0.0000   0.3155
  14.000   2.2180   0.03072   0.02518  -0.1887  0.2549  1.0000  -4.4127   0.0000   0.3064
  15.000   2.2130   0.03746   0.03204  -0.1747  0.2084  1.0000  -4.6433   0.0000   0.2978
  16.000   2.1553   0.05345   0.04818  -0.1658  0.1674  1.0000  -4.7222   0.0000   0.2932
  17.000   2.0646   0.07779   0.07294  -0.1652  0.1426  1.0000  -4.6806   0.0000   0.2935
  18.000   1.9684   0.10585   0.10140  -0.1704  0.1234  1.0000  -4.5845   0.0000   0.2974
  19.000   1.8986   0.13048   0.12628  -0.1783  0.1043  1.0000  -4.5319   0.0000   0.3020
  20.000   1.8591   0.14959   0.14555  -0.1867  0.0879  1.0000  -4.5702   0.0000   0.3057
  21.000   1.8455   0.16548   0.16171  -0.1941  0.0770  1.0000  -4.7334   0.0000   0.3075
  22.000   1.8313   0.18249   0.17897  -0.2023  0.0677  1.0000  -5.1446   0.0000   0.3098


