XFLR5 v6.09.05 beta

 Calculated polar for: -5s1223

 1 1 Reynolds number fixed          Mach number fixed         

 xtrf =   1.000 (top)        1.000 (bottom)
 Mach =   0.000     Re =     0.050 e 6     Ncrit =   9.000

  alpha     CL        CD       CDp       Cm    Top Xtr Bot Xtr   Cpmin    Chinge    XCp    
 ------- -------- --------- --------- -------- ------- ------- -------- --------- ---------
   0.000   0.4285   0.05918   0.05348  -0.1195  0.6939  0.3710  -0.9567   0.0000   0.5283
   1.000   0.9162   0.03562   0.02636  -0.2256  0.6534  0.1796  -1.2190   0.0000   0.4935
   2.000   0.9845   0.03963   0.03138  -0.2156  0.6260  0.5860  -1.2842   0.0000   0.4651
   3.000   1.0771   0.04339   0.03503  -0.2148  0.6046  0.7121  -1.3594   0.0000   0.4440
   4.000   0.9790   0.06211   0.05477  -0.1995  0.5873  0.8158  -1.2299   0.0000   0.4476
   5.000   0.9257   0.08516   0.07783  -0.2026  0.5940  1.0000  -1.1122   0.0000   0.4620
   7.000   0.8979   0.12376   0.11617  -0.2121  0.6757  1.0000  -0.9819   0.0000   0.4774
  11.000   1.1315   0.18035   0.17213  -0.2134  0.5268  1.0000  -1.2682   0.0000   0.4230
  12.000   1.1790   0.19571   0.18774  -0.2134  0.4903  1.0000  -1.3579   0.0000   0.4135
  13.000   1.1816   0.20283   0.19500  -0.2131  0.4550  1.0000  -1.3876   0.0000   0.4110
  14.000   1.1952   0.21183   0.20417  -0.2144  0.4200  1.0000  -1.4424   0.0000   0.4082
  15.000   1.1949   0.21837   0.21090  -0.2188  0.3890  1.0000  -1.4464   0.0000   0.4100
  16.000   1.2099   0.23175   0.22448  -0.2237  0.3596  1.0000  -1.4594   0.0000   0.4098
  17.000   1.2295   0.24779   0.24099  -0.2286  0.3318  1.0000  -1.4709   0.0000   0.4087
  18.000   1.2766   0.27463   0.26813  -0.2304  0.3146  1.0000  -1.5698   0.0000   0.4011


