XFLR5 v6.09.05 beta

 Calculated polar for: -5s1223

 1 1 Reynolds number fixed          Mach number fixed         

 xtrf =   1.000 (top)        1.000 (bottom)
 Mach =   0.000     Re =     0.115 e 6     Ncrit =   9.000

  alpha     CL        CD       CDp       Cm    Top Xtr Bot Xtr   Cpmin    Chinge    XCp    
 ------- -------- --------- --------- -------- ------- ------- -------- --------- ---------
   0.000   0.8631   0.02270   0.01366  -0.2266  0.5526  0.0750  -1.2316   0.0000   0.5102
   1.000   1.0137   0.02142   0.01172  -0.2335  0.5234  0.1027  -1.3605   0.0000   0.4765
   2.000   1.1305   0.02302   0.01397  -0.2337  0.5020  0.4484  -1.4824   0.0000   0.4515
   3.000   1.2506   0.02473   0.01567  -0.2356  0.4858  0.5464  -1.6025   0.0000   0.4316
   4.000   1.3291   0.02538   0.01705  -0.2279  0.4701  1.0000  -1.6988   0.0000   0.4132
   5.000   1.4401   0.02846   0.01973  -0.2282  0.4567  1.0000  -1.8319   0.0000   0.3986
   6.000   1.5308   0.03235   0.02389  -0.2254  0.4446  1.0000  -1.9575   0.0000   0.3858
   7.000   1.6186   0.03589   0.02773  -0.2219  0.4304  1.0000  -2.1095   0.0000   0.3740
   8.000   1.7056   0.04093   0.03281  -0.2189  0.4163  1.0000  -2.2803   0.0000   0.3634
   9.000   1.7516   0.04626   0.03881  -0.2098  0.4003  1.0000  -2.4277   0.0000   0.3531
  10.000   1.8504   0.04882   0.04153  -0.2078  0.3847  1.0000  -2.7486   0.0000   0.3436
  11.000   1.4894   0.09438   0.08838  -0.1792  0.3534  1.0000  -2.1635   0.0000   0.3506
  12.000   1.9233   0.05933   0.05288  -0.1879  0.3487  1.0000  -3.2284   0.0000   0.3249
  15.000   1.3765   0.17250   0.16759  -0.1979  0.2365  1.0000  -2.1486   0.0000   0.3669
  17.000   1.5043   0.17324   0.16884  -0.1922  0.2009  1.0000  -2.7446   0.0000   0.3448


