XFLR5 v6.09.05 beta

 Calculated polar for: -5s1223

 1 1 Reynolds number fixed          Mach number fixed         

 xtrf =   1.000 (top)        1.000 (bottom)
 Mach =   0.000     Re =     0.315 e 6     Ncrit =   9.000

  alpha     CL        CD       CDp       Cm    Top Xtr Bot Xtr   Cpmin    Chinge    XCp    
 ------- -------- --------- --------- -------- ------- ------- -------- --------- ---------
   0.000   0.8783   0.01595   0.00773  -0.2272  0.4531  0.0315  -1.2707   0.0000   0.5061
   1.000   1.0170   0.01502   0.00662  -0.2325  0.4352  0.0428  -1.4007   0.0000   0.4744
   2.000   1.1557   0.01534   0.00717  -0.2378  0.4166  0.3180  -1.5439   0.0000   0.4501
   3.000   1.2737   0.01573   0.00773  -0.2386  0.4061  0.3987  -1.6786   0.0000   0.4300
   4.000   1.3979   0.01620   0.00873  -0.2411  0.3943  0.6586  -1.8197   0.0000   0.4135
   5.000   1.4883   0.01740   0.01015  -0.2359  0.3822  1.0000  -1.9376   0.0000   0.3979
   6.000   1.5970   0.01834   0.01119  -0.2351  0.3754  1.0000  -2.0895   0.0000   0.3850
   7.000   1.7027   0.01946   0.01233  -0.2339  0.3655  1.0000  -2.2669   0.0000   0.3733
   8.000   1.8061   0.02107   0.01386  -0.2325  0.3525  1.0000  -2.4698   0.0000   0.3629
   9.000   1.9027   0.02253   0.01571  -0.2300  0.3429  1.0000  -2.7442   0.0000   0.3530
  10.000   1.9916   0.02339   0.01674  -0.2258  0.3299  1.0000  -3.0869   0.0000   0.3435
  11.000   2.0719   0.02482   0.01837  -0.2203  0.3130  1.0000  -3.4274   0.0000   0.3343
  12.000   2.1314   0.02589   0.01980  -0.2107  0.2983  1.0000  -3.7435   0.0000   0.3247
  13.000   2.1820   0.02804   0.02220  -0.2003  0.2811  1.0000  -4.0887   0.0000   0.3154
  14.000   2.2163   0.03098   0.02544  -0.1884  0.2575  1.0000  -4.4072   0.0000   0.3063
  15.000   2.2151   0.03736   0.03199  -0.1747  0.2142  1.0000  -4.6463   0.0000   0.2978
  16.000   2.1540   0.05348   0.04824  -0.1654  0.1727  1.0000  -4.7175   0.0000   0.2931
  17.000   2.0637   0.07770   0.07287  -0.1648  0.1469  1.0000  -4.6769   0.0000   0.2934
  18.000   1.9654   0.10607   0.10162  -0.1702  0.1265  1.0000  -4.5738   0.0000   0.2974
  19.000   1.8951   0.13077   0.12655  -0.1782  0.1061  1.0000  -4.5190   0.0000   0.3021
  20.000   1.8590   0.14935   0.14532  -0.1863  0.0898  1.0000  -4.5696   0.0000   0.3056
  21.000   1.8446   0.16535   0.16159  -0.1938  0.0783  1.0000  -4.7287   0.0000   0.3074
  22.000   1.8293   0.18256   0.17901  -0.2021  0.0684  1.0000  -5.1235   0.0000   0.3098


