XFLR5 v6.09.05 beta

 Calculated polar for: 0s1223

 1 1 Reynolds number fixed          Mach number fixed         

 xtrf =   1.000 (top)        1.000 (bottom)
 Mach =   0.000     Re =     0.200 e 6     Ncrit =   9.000

  alpha     CL        CD       CDp       Cm    Top Xtr Bot Xtr   Cpmin    Chinge    XCp    
 ------- -------- --------- --------- -------- ------- ------- -------- --------- ---------
   0.000   1.1886   0.01778   0.00918  -0.2716  0.4789  0.2287  -1.4915   0.0000   0.4762
   1.000   1.3044   0.01945   0.01073  -0.2719  0.4562  0.3760  -1.6217   0.0000   0.4544
   2.000   1.4253   0.02041   0.01179  -0.2735  0.4425  0.4412  -1.7565   0.0000   0.4362
   4.000   1.6433   0.02308   0.01502  -0.2719  0.4151  1.0000  -2.0204   0.0000   0.4064
   5.000   1.7458   0.02479   0.01687  -0.2701  0.4056  1.0000  -2.1665   0.0000   0.3939
   6.000   1.8452   0.02657   0.01864  -0.2678  0.3939  1.0000  -2.3391   0.0000   0.3825
   7.000   1.9451   0.02973   0.02185  -0.2663  0.3805  1.0000  -2.5379   0.0000   0.3723
   8.000   2.0214   0.03133   0.02398  -0.2596  0.3688  1.0000  -2.7881   0.0000   0.3619
   9.000   2.1024   0.03300   0.02576  -0.2540  0.3554  1.0000  -3.1195   0.0000   0.3522
  10.000   2.1571   0.03583   0.02911  -0.2440  0.3405  1.0000  -3.4131   0.0000   0.3424
  11.000   2.1909   0.03709   0.03060  -0.2298  0.3234  1.0000  -3.6832   0.0000   0.3320
  12.000   2.2143   0.04058   0.03454  -0.2157  0.3067  1.0000  -3.9584   0.0000   0.3223
  13.000   2.2314   0.04422   0.03851  -0.2022  0.2885  1.0000  -4.2381   0.0000   0.3131
  14.000   2.2201   0.05121   0.04620  -0.1884  0.2681  1.0000  -4.4488   0.0000   0.3048
  15.000   2.1983   0.06166   0.05706  -0.1786  0.2419  1.0000  -4.6266   0.0000   0.2985


