XFLR5 v6.09.05 beta

 Calculated polar for: 0s1223

 1 1 Reynolds number fixed          Mach number fixed         

 xtrf =   1.000 (top)        1.000 (bottom)
 Mach =   0.000     Re =     0.025 e 6     Ncrit =   9.000

  alpha     CL        CD       CDp       Cm    Top Xtr Bot Xtr   Cpmin    Chinge    XCp    
 ------- -------- --------- --------- -------- ------- ------- -------- --------- ---------
   0.000  -0.3520   0.12189   0.11697   0.0207  1.0000  0.4439  -0.9370   0.0000   0.3023
   2.000  -0.3413   0.10204   0.09771   0.0528  1.0000  0.8202  -0.8517   0.0000   0.3991
   3.000  -0.2325   0.09331   0.08898   0.0359  1.0000  0.9320  -0.8079   0.0000   0.3978
   4.000  -0.3018   0.08752   0.08343   0.0502  0.9993  0.9082  -0.8648   0.0000   0.4105
   5.000   0.5789   0.12061   0.11365  -0.1808  0.9811  0.7429  -0.8747   0.0000   0.5558
   6.000   0.7112   0.13311   0.12499  -0.2039  0.9545  1.0000  -0.7801   0.0000   0.5284
   7.000   0.8298   0.14941   0.13974  -0.2220  0.9095  1.0000  -0.8545   0.0000   0.5075
   8.000   0.8968   0.16086   0.15057  -0.2273  0.8652  1.0000  -0.9033   0.0000   0.4917
   9.000   0.9538   0.17152   0.16093  -0.2307  0.8166  1.0000  -0.9548   0.0000   0.4784
  10.000   1.0174   0.18638   0.17558  -0.2351  0.7696  1.0000  -1.0204   0.0000   0.4657
  11.000   1.0625   0.19551   0.18471  -0.2372  0.7187  1.0000  -1.0725   0.0000   0.4561
  12.000   1.1312   0.21901   0.20844  -0.2418  0.6727  1.0000  -1.1680   0.0000   0.4448
  13.000   1.1458   0.22115   0.21074  -0.2423  0.6258  1.0000  -1.2059   0.0000   0.4405
  14.000   1.1814   0.23498   0.22479  -0.2450  0.5806  1.0000  -1.2780   0.0000   0.4343
  15.000   1.2211   0.25245   0.24254  -0.2476  0.5351  1.0000  -1.3567   0.0000   0.4277
  16.000   1.2506   0.27024   0.26064  -0.2505  0.4962  1.0000  -1.3979   0.0000   0.4230
  17.000   1.2689   0.28697   0.27806  -0.2535  0.4605  1.0000  -1.4190   0.0000   0.4202
  18.000   1.2842   0.30526   0.29671  -0.2561  0.4244  1.0000  -1.4367   0.0000   0.4175
  19.000   1.2818   0.32331   0.31511  -0.2590  0.4003  1.0000  -1.3945   0.0000   0.4178
  20.000   1.2779   0.34395   0.33616  -0.2590  0.3731  1.0000  -1.3734   0.0000   0.4160


