XFLR5 v6.09.05 beta

 Calculated polar for: 0s1223

 1 1 Reynolds number fixed          Mach number fixed         

 xtrf =   1.000 (top)        1.000 (bottom)
 Mach =   0.000     Re =     0.270 e 6     Ncrit =   9.000

  alpha     CL        CD       CDp       Cm    Top Xtr Bot Xtr   Cpmin    Chinge    XCp    
 ------- -------- --------- --------- -------- ------- ------- -------- --------- ---------
   0.000   1.1664   0.01687   0.00819  -0.2665  0.4524  0.0488  -1.4860   0.0000   0.4760
   1.000   1.2952   0.01732   0.00917  -0.2697  0.4362  0.3456  -1.6245   0.0000   0.4541
   2.000   1.4253   0.01871   0.01031  -0.2733  0.4172  0.4036  -1.7685   0.0000   0.4360
   3.000   1.5389   0.01939   0.01136  -0.2734  0.4079  0.5383  -1.9041   0.0000   0.4202
   4.000   1.6341   0.01996   0.01252  -0.2694  0.3973  1.0000  -2.0292   0.0000   0.4056
   5.000   1.7493   0.02196   0.01434  -0.2703  0.3848  1.0000  -2.1854   0.0000   0.3936
   6.000   1.8496   0.02362   0.01613  -0.2682  0.3765  1.0000  -2.3563   0.0000   0.3822
   7.000   1.9389   0.02502   0.01767  -0.2638  0.3656  1.0000  -2.5467   0.0000   0.3714
   8.000   2.0285   0.02682   0.01960  -0.2598  0.3517  1.0000  -2.8182   0.0000   0.3614
   9.000   2.0975   0.02881   0.02195  -0.2519  0.3409  1.0000  -3.1280   0.0000   0.3514
  10.000   2.1476   0.03027   0.02373  -0.2404  0.3266  1.0000  -3.4185   0.0000   0.3411
  11.000   2.1952   0.03271   0.02642  -0.2294  0.3100  1.0000  -3.7113   0.0000   0.3315
  12.000   2.2288   0.03557   0.02969  -0.2169  0.2945  1.0000  -4.0143   0.0000   0.3220
  13.000   2.2544   0.03988   0.03444  -0.2050  0.2765  1.0000  -4.3123   0.0000   0.3132
  14.000   2.2582   0.04630   0.04117  -0.1927  0.2511  1.0000  -4.5635   0.0000   0.3051
  15.000   2.2281   0.05835   0.05346  -0.1825  0.2110  1.0000  -4.7260   0.0000   0.2990
  16.000   2.1457   0.08081   0.07612  -0.1784  0.1745  1.0000  -4.7276   0.0000   0.2973


