XFLR5 v6.09.05 beta

 Calculated polar for: 0s1223

 1 1 Reynolds number fixed          Mach number fixed         

 xtrf =   1.000 (top)        1.000 (bottom)
 Mach =   0.000     Re =     0.240 e 6     Ncrit =   9.000

  alpha     CL        CD       CDp       Cm    Top Xtr Bot Xtr   Cpmin    Chinge    XCp    
 ------- -------- --------- --------- -------- ------- ------- -------- --------- ---------
   0.000   1.1671   0.01720   0.00841  -0.2666  0.4637  0.0555  -1.4840   0.0000   0.4760
   1.000   1.2991   0.01816   0.00979  -0.2706  0.4442  0.3559  -1.6235   0.0000   0.4542
   2.000   1.4195   0.01898   0.01057  -0.2720  0.4289  0.4174  -1.7613   0.0000   0.4359
   3.000   1.5454   0.02042   0.01219  -0.2749  0.4141  0.5628  -1.9031   0.0000   0.4205
   5.000   1.7443   0.02259   0.01489  -0.2693  0.3939  1.0000  -2.1765   0.0000   0.3935
   6.000   1.8551   0.02524   0.01748  -0.2697  0.3810  1.0000  -2.3566   0.0000   0.3826
   7.000   1.9419   0.02663   0.01912  -0.2648  0.3718  1.0000  -2.5442   0.0000   0.3717
   8.000   2.0249   0.02803   0.02077  -0.2593  0.3589  1.0000  -2.8065   0.0000   0.3614
   9.000   2.1100   0.03069   0.02361  -0.2550  0.3452  1.0000  -3.1431   0.0000   0.3522
  10.000   2.1519   0.03219   0.02562  -0.2418  0.3320  1.0000  -3.4178   0.0000   0.3416
  11.000   2.2012   0.03430   0.02781  -0.2310  0.3133  1.0000  -3.7158   0.0000   0.3319
  12.000   2.2234   0.03729   0.03137  -0.2164  0.2991  1.0000  -3.9938   0.0000   0.3221
  13.000   2.2468   0.04142   0.03577  -0.2040  0.2809  1.0000  -4.2873   0.0000   0.3132
  14.000   2.2469   0.04766   0.04252  -0.1912  0.2585  1.0000  -4.5288   0.0000   0.3050
  15.000   2.2200   0.05903   0.05418  -0.1809  0.2269  1.0000  -4.6972   0.0000   0.2987
  16.000   2.1556   0.07867   0.07420  -0.1767  0.1908  1.0000  -4.7470   0.0000   0.2962


