XFLR5 v6.09.05 beta

 Calculated polar for: 0s1223

 1 1 Reynolds number fixed          Mach number fixed         

 xtrf =   1.000 (top)        1.000 (bottom)
 Mach =   0.000     Re =     0.335 e 6     Ncrit =   9.000

  alpha     CL        CD       CDp       Cm    Top Xtr Bot Xtr   Cpmin    Chinge    XCp    
 ------- -------- --------- --------- -------- ------- ------- -------- --------- ---------
   0.000   1.1598   0.01570   0.00749  -0.2649  0.4405  0.0431  -1.4874   0.0000   0.4759
   1.000   1.2976   0.01651   0.00846  -0.2702  0.4173  0.3233  -1.6308   0.0000   0.4541
   2.000   1.4121   0.01705   0.00915  -0.2702  0.4080  0.3817  -1.7665   0.0000   0.4356
   3.000   1.5255   0.01791   0.01012  -0.2703  0.3956  0.4956  -1.9037   0.0000   0.4197
   4.000   1.6534   0.01934   0.01201  -0.2736  0.3815  0.8132  -2.0517   0.0000   0.4062
   5.000   1.7412   0.02012   0.01299  -0.2683  0.3757  1.0000  -2.1856   0.0000   0.3931
   6.000   1.8365   0.02138   0.01428  -0.2650  0.3662  1.0000  -2.3509   0.0000   0.3814
   7.000   1.9277   0.02291   0.01576  -0.2610  0.3544  1.0000  -2.5424   0.0000   0.3706
   8.000   2.0176   0.02476   0.01793  -0.2572  0.3436  1.0000  -2.8074   0.0000   0.3607
   9.000   2.0834   0.02614   0.01955  -0.2484  0.3321  1.0000  -3.1139   0.0000   0.3504
  10.000   2.1490   0.02827   0.02180  -0.2403  0.3141  1.0000  -3.4310   0.0000   0.3409
  11.000   2.1953   0.03027   0.02425  -0.2289  0.3022  1.0000  -3.7220   0.0000   0.3312
  12.000   2.2379   0.03355   0.02767  -0.2182  0.2836  1.0000  -4.0463   0.0000   0.3221
  13.000   2.2725   0.03730   0.03195  -0.2076  0.2653  1.0000  -4.3664   0.0000   0.3135
  14.000   2.2649   0.04538   0.04006  -0.1946  0.2221  1.0000  -4.5938   0.0000   0.3056
  15.000   2.2094   0.06121   0.05594  -0.1838  0.1743  1.0000  -4.6907   0.0000   0.3001
  16.000   2.1336   0.08406   0.07915  -0.1813  0.1441  1.0000  -4.7039   0.0000   0.2990
  17.000   2.0418   0.11121   0.10671  -0.1858  0.1235  1.0000  -4.6332   0.0000   0.3021


