XFLR5 v6.09.05 beta

 Calculated polar for: 0s1223

 1 1 Reynolds number fixed          Mach number fixed         

 xtrf =   1.000 (top)        1.000 (bottom)
 Mach =   0.000     Re =     0.145 e 6     Ncrit =   9.000

  alpha     CL        CD       CDp       Cm    Top Xtr Bot Xtr   Cpmin    Chinge    XCp    
 ------- -------- --------- --------- -------- ------- ------- -------- --------- ---------
   0.000   1.1874   0.01996   0.01111  -0.2716  0.5114  0.3047  -1.4786   0.0000   0.4765
   1.000   1.3050   0.02191   0.01286  -0.2723  0.4870  0.4145  -1.6086   0.0000   0.4548
   2.000   1.4247   0.02300   0.01402  -0.2737  0.4698  0.4865  -1.7391   0.0000   0.4366
   3.000   1.5452   0.02507   0.01624  -0.2755  0.4523  0.6680  -1.8716   0.0000   0.4211
   4.000   1.6313   0.02633   0.01790  -0.2700  0.4414  1.0000  -1.9886   0.0000   0.4066
   5.000   1.7353   0.02871   0.02031  -0.2688  0.4290  1.0000  -2.1360   0.0000   0.3943
   6.000   1.8346   0.03260   0.02420  -0.2673  0.4156  1.0000  -2.3054   0.0000   0.3833
   7.000   1.9131   0.03521   0.02720  -0.2614  0.4032  1.0000  -2.4776   0.0000   0.3723
   8.000   2.0009   0.03755   0.02983  -0.2572  0.3890  1.0000  -2.7296   0.0000   0.3623
   9.000   2.0604   0.04205   0.03481  -0.2489  0.3747  1.0000  -3.0129   0.0000   0.3526
  10.000   2.1130   0.04426   0.03738  -0.2386  0.3581  1.0000  -3.3000   0.0000   0.3426
  11.000   2.1438   0.04812   0.04175  -0.2255  0.3417  1.0000  -3.5525   0.0000   0.3327
  12.000   2.1639   0.04985   0.04380  -0.2105  0.3225  1.0000  -3.8100   0.0000   0.3225
  13.000   2.1355   0.05696   0.05154  -0.1930  0.3040  1.0000  -3.9770   0.0000   0.3132


