XFLR5 v6.09.05 beta

 Calculated polar for: 0s1223

 1 1 Reynolds number fixed          Mach number fixed         

 xtrf =   1.000 (top)        1.000 (bottom)
 Mach =   0.000     Re =     0.110 e 6     Ncrit =   9.000

  alpha     CL        CD       CDp       Cm    Top Xtr Bot Xtr   Cpmin    Chinge    XCp    
 ------- -------- --------- --------- -------- ------- ------- -------- --------- ---------
   0.000   1.1769   0.02241   0.01350  -0.2697  0.5460  0.3562  -1.4607   0.0000   0.4771
   1.000   1.2937   0.02435   0.01516  -0.2701  0.5188  0.4521  -1.5864   0.0000   0.4551
   2.000   1.4182   0.02574   0.01649  -0.2728  0.4985  0.5325  -1.7169   0.0000   0.4370
   3.000   1.5250   0.02792   0.01904  -0.2719  0.4817  0.7267  -1.8334   0.0000   0.4212
   4.000   1.6148   0.02998   0.02119  -0.2677  0.4670  1.0000  -1.9514   0.0000   0.4071
   5.000   1.7188   0.03467   0.02581  -0.2674  0.4531  1.0000  -2.0947   0.0000   0.3952
   6.000   1.7930   0.03815   0.02973  -0.2611  0.4403  1.0000  -2.2351   0.0000   0.3835
   7.000   1.8732   0.04180   0.03354  -0.2560  0.4254  1.0000  -2.4059   0.0000   0.3727
   8.000   1.9240   0.04827   0.04068  -0.2470  0.4112  1.0000  -2.5726   0.0000   0.3626
   9.000   1.9433   0.05400   0.04699  -0.2329  0.3942  1.0000  -2.7685   0.0000   0.3522
  10.000   1.9603   0.06130   0.05463  -0.2198  0.3789  1.0000  -2.9730   0.0000   0.3424


