XFLR5 v6.09.05 beta

 Calculated polar for: 0s1223

 1 1 Reynolds number fixed          Mach number fixed         

 xtrf =   1.000 (top)        1.000 (bottom)
 Mach =   0.000     Re =     0.055 e 6     Ncrit =   9.000

  alpha     CL        CD       CDp       Cm    Top Xtr Bot Xtr   Cpmin    Chinge    XCp    
 ------- -------- --------- --------- -------- ------- ------- -------- --------- ---------
   0.000   1.0829   0.03127   0.02288  -0.2551  0.6697  0.4065  -1.3552   0.0000   0.4840
   1.000   1.1774   0.03367   0.02500  -0.2497  0.6339  0.5662  -1.4514   0.0000   0.4590
   2.000   1.3065   0.03642   0.02726  -0.2546  0.6033  0.6639  -1.5677   0.0000   0.4402
   3.000   1.3434   0.04274   0.03428  -0.2450  0.5828  0.8140  -1.6034   0.0000   0.4263
   4.000   1.4422   0.04999   0.04098  -0.2479  0.5616  1.0000  -1.7044   0.0000   0.4142
   5.000   0.9920   0.11054   0.10381  -0.2234  0.5907  0.7473  -1.1016   0.0000   0.4678
   6.000   0.9233   0.13103   0.12503  -0.2251  0.6612  0.8794  -0.9678   0.0000   0.4856
   8.000   1.0487   0.15390   0.14678  -0.2316  0.5798  1.0000  -1.0863   0.0000   0.4590


