XFLR5 v6.09.05 beta

 Calculated polar for: 10s1223

 1 1 Reynolds number fixed          Mach number fixed         

 xtrf =   1.000 (top)        1.000 (bottom)
 Mach =   0.000     Re =     0.105 e 6     Ncrit =   9.000

  alpha     CL        CD       CDp       Cm    Top Xtr Bot Xtr   Cpmin    Chinge    XCp    
 ------- -------- --------- --------- -------- ------- ------- -------- --------- ---------
   0.000   1.4965   0.03136   0.02269  -0.2940  0.5375  0.4620  -1.7447   0.0000   0.4439
   1.000   1.6354   0.03343   0.02463  -0.2995  0.5132  0.5246  -1.8909   0.0000   0.4288
   2.000   1.7818   0.03618   0.02710  -0.3062  0.4912  0.6201  -2.0486   0.0000   0.4157
   3.000   1.8543   0.03927   0.03073  -0.2992  0.4770  0.7224  -2.1561   0.0000   0.4034
   4.000   1.9631   0.04229   0.03387  -0.2997  0.4622  0.8645  -2.3177   0.0000   0.3927


