XFLR5 v6.09.05 beta

 Calculated polar for: 10s1223

 1 1 Reynolds number fixed          Mach number fixed         

 xtrf =   1.000 (top)        1.000 (bottom)
 Mach =   0.000     Re =     0.220 e 6     Ncrit =   9.000

  alpha     CL        CD       CDp       Cm    Top Xtr Bot Xtr   Cpmin    Chinge    XCp    
 ------- -------- --------- --------- -------- ------- ------- -------- --------- ---------
   0.000   1.4924   0.02899   0.02092  -0.2945  0.4540  0.3713  -1.7665   0.0000   0.4444
   1.000   1.5988   0.03058   0.02261  -0.2934  0.4403  0.4217  -1.8973   0.0000   0.4288
   2.000   1.7068   0.03222   0.02416  -0.2925  0.4237  0.5049  -2.0326   0.0000   0.4148
   3.000   1.8177   0.03378   0.02602  -0.2921  0.4123  0.6051  -2.1727   0.0000   0.4022
   4.000   1.9026   0.03568   0.02819  -0.2870  0.4021  0.6816  -2.3079   0.0000   0.3905
   5.000   1.9942   0.03768   0.03025  -0.2835  0.3902  0.7568  -2.4803   0.0000   0.3798
   6.000   2.0945   0.04008   0.03305  -0.2822  0.3777  0.8458  -2.6937   0.0000   0.3704


