XFLR5 v6.09.05 beta

 Calculated polar for: 10s1223

 1 1 Reynolds number fixed          Mach number fixed         

 xtrf =   1.000 (top)        1.000 (bottom)
 Mach =   0.000     Re =     0.195 e 6     Ncrit =   9.000

  alpha     CL        CD       CDp       Cm    Top Xtr Bot Xtr   Cpmin    Chinge    XCp    
 ------- -------- --------- --------- -------- ------- ------- -------- --------- ---------
   0.000   1.4832   0.02937   0.02135  -0.2927  0.4677  0.3826  -1.7564   0.0000   0.4444
   1.000   1.6132   0.03069   0.02249  -0.2959  0.4491  0.4380  -1.9044   0.0000   0.4287
   2.000   1.7130   0.03249   0.02442  -0.2935  0.4337  0.5213  -2.0311   0.0000   0.4148
   3.000   1.8407   0.03404   0.02599  -0.2962  0.4182  0.6223  -2.1878   0.0000   0.4025
   4.000   1.9220   0.03621   0.02850  -0.2905  0.4100  0.7014  -2.3201   0.0000   0.3909
   5.000   2.0074   0.03854   0.03105  -0.2861  0.3979  0.7817  -2.4877   0.0000   0.3802


