XFLR5 v6.09.05 beta

 Calculated polar for: 10s1223

 1 1 Reynolds number fixed          Mach number fixed         

 xtrf =   1.000 (top)        1.000 (bottom)
 Mach =   0.000     Re =     0.110 e 6     Ncrit =   9.000

  alpha     CL        CD       CDp       Cm    Top Xtr Bot Xtr   Cpmin    Chinge    XCp    
 ------- -------- --------- --------- -------- ------- ------- -------- --------- ---------
   0.000   1.5211   0.03099   0.02214  -0.2988  0.5293  0.4589  -1.7658   0.0000   0.4439
   1.000   1.6365   0.03308   0.02429  -0.2997  0.5070  0.5179  -1.8950   0.0000   0.4288
   2.000   1.7688   0.03572   0.02680  -0.3038  0.4872  0.6098  -2.0399   0.0000   0.4156
   3.000   1.8524   0.03860   0.03010  -0.2986  0.4717  0.7104  -2.1591   0.0000   0.4032
   4.000   1.9881   0.04196   0.03340  -0.3043  0.4561  0.8569  -2.3465   0.0000   0.3931


