XFLR5 v6.09.05 beta

 Calculated polar for: 10s1223

 1 1 Reynolds number fixed          Mach number fixed         

 xtrf =   1.000 (top)        1.000 (bottom)
 Mach =   0.000     Re =     0.275 e 6     Ncrit =   9.000

  alpha     CL        CD       CDp       Cm    Top Xtr Bot Xtr   Cpmin    Chinge    XCp    
 ------- -------- --------- --------- -------- ------- ------- -------- --------- ---------
   0.000   1.4769   0.02891   0.02135  -0.2922  0.4403  0.3497  -1.7600   0.0000   0.4448
   1.000   1.5889   0.03038   0.02260  -0.2919  0.4218  0.3978  -1.8971   0.0000   0.4289
   2.000   1.6945   0.03191   0.02430  -0.2906  0.4099  0.4779  -2.0302   0.0000   0.4148
   3.000   1.7896   0.03358   0.02624  -0.2874  0.3988  0.5745  -2.1573   0.0000   0.4020
   4.000   1.8879   0.03509   0.02775  -0.2847  0.3870  0.6553  -2.3038   0.0000   0.3903
   5.000   1.9822   0.03683   0.02972  -0.2816  0.3773  0.7216  -2.4740   0.0000   0.3796
   6.000   2.0570   0.03923   0.03253  -0.2756  0.3666  0.7811  -2.6556   0.0000   0.3694
   7.000   2.1264   0.04134   0.03481  -0.2688  0.3533  0.9445  -2.9248   0.0000   0.3597


