XFLR5 v6.09.05 beta

 Calculated polar for: 10s1223

 1 1 Reynolds number fixed          Mach number fixed         

 xtrf =   1.000 (top)        1.000 (bottom)
 Mach =   0.000     Re =     0.285 e 6     Ncrit =   9.000

  alpha     CL        CD       CDp       Cm    Top Xtr Bot Xtr   Cpmin    Chinge    XCp    
 ------- -------- --------- --------- -------- ------- ------- -------- --------- ---------
   0.000   1.4770   0.02887   0.02135  -0.2923  0.4377  0.3466  -1.7610   0.0000   0.4448
   1.000   1.5956   0.03015   0.02238  -0.2931  0.4174  0.3959  -1.9028   0.0000   0.4288
   2.000   1.6916   0.03190   0.02435  -0.2902  0.4079  0.4731  -2.0292   0.0000   0.4148
   3.000   1.7869   0.03358   0.02627  -0.2870  0.3967  0.5701  -2.1563   0.0000   0.4020
   4.000   1.8976   0.03482   0.02748  -0.2864  0.3831  0.6540  -2.3133   0.0000   0.3905
   5.000   1.9760   0.03680   0.02977  -0.2805  0.3758  0.7153  -2.4685   0.0000   0.3795
   6.000   2.0529   0.03911   0.03244  -0.2749  0.3648  0.7754  -2.6517   0.0000   0.3693


