XFLR5 v6.09.05 beta

 Calculated polar for: 10s1223

 1 1 Reynolds number fixed          Mach number fixed         

 xtrf =   1.000 (top)        1.000 (bottom)
 Mach =   0.000     Re =     0.005 e 6     Ncrit =   9.000

  alpha     CL        CD       CDp       Cm    Top Xtr Bot Xtr   Cpmin    Chinge    XCp    
 ------- -------- --------- --------- -------- ------- ------- -------- --------- ---------
   0.000  -0.0434   0.11294   0.09920  -0.0066  1.0000  1.0000  -0.9414   0.0000   0.0716
   1.000  -0.0601   0.10912   0.09591  -0.0040  1.0000  1.0000  -0.9560   0.0000   0.1668
   2.000  -0.0765   0.10371   0.09100  -0.0016  1.0000  1.0000  -0.9711   0.0000   0.2175
   3.000  -0.0885   0.09643   0.08416  -0.0004  1.0000  1.0000  -1.0125   0.0000   0.2365
   4.000   0.0559   0.09832   0.08527  -0.0375  1.0000  1.0000  -1.0533   0.0000   0.9106
   5.000   0.6582   0.15166   0.13176  -0.1797  1.0000  1.0000  -0.7820   0.0000   0.5131
   6.000   0.7732   0.17007   0.14826  -0.1993  1.0000  1.0000  -0.8445   0.0000   0.4958
   7.000   0.8522   0.18588   0.16291  -0.2106  1.0000  1.0000  -0.8929   0.0000   0.4830
   8.000   0.9161   0.20091   0.17740  -0.2189  1.0000  1.0000  -0.9389   0.0000   0.4727
   9.000   0.9708   0.21579   0.19191  -0.2258  1.0000  1.0000  -0.9851   0.0000   0.4641
  10.000   1.0194   0.23088   0.20694  -0.2320  1.0000  1.0000  -1.0315   0.0000   0.4569
  11.000   1.0631   0.24638   0.22263  -0.2380  1.0000  1.0000  -1.0780   0.0000   0.4508
  12.000   1.1028   0.26241   0.23938  -0.2440  1.0000  1.0000  -1.1316   0.0000   0.4457
  13.000   1.1393   0.27894   0.25637  -0.2500  1.0000  1.0000  -1.1882   0.0000   0.4415
  14.000   1.1727   0.29624   0.27427  -0.2563  1.0000  1.0000  -1.2359   0.0000   0.4380
  15.000   1.2032   0.31449   0.29321  -0.2626  1.0000  1.0000  -1.2916   0.0000   0.4351
  16.000   1.2308   0.33375   0.31323  -0.2690  1.0000  1.0000  -1.3304   0.0000   0.4326
  17.000   1.2559   0.35405   0.33508  -0.2753  1.0000  1.0000  -1.3499   0.0000   0.4305
  18.000   1.2780   0.37526   0.35716  -0.2817  1.0000  1.0000  -1.3827   0.0000   0.4287
  22.000   1.3150   0.45802   0.44440  -0.2998  0.9787  1.0000  -1.3922   0.0000   0.4237
  23.000   1.2429   0.46409   0.45202  -0.2863  0.9200  1.0000  -1.2811   0.0000   0.4237
  24.000   1.1115   0.42998   0.41961  -0.2581  0.8492  1.0000  -1.0675   0.0000   0.4245
  25.000   1.0773   0.42419   0.41481  -0.2519  0.8057  1.0000  -1.0300   0.0000   0.4235


