XFLR5 v6.09.05 beta

 Calculated polar for: 10s1223

 1 1 Reynolds number fixed          Mach number fixed         

 xtrf =   1.000 (top)        1.000 (bottom)
 Mach =   0.000     Re =     0.325 e 6     Ncrit =   9.000

  alpha     CL        CD       CDp       Cm    Top Xtr Bot Xtr   Cpmin    Chinge    XCp    
 ------- -------- --------- --------- -------- ------- ------- -------- --------- ---------
   0.000   1.4781   0.02878   0.02134  -0.2927  0.4274  0.3360  -1.7649   0.0000   0.4449
   1.000   1.5869   0.03015   0.02268  -0.2919  0.4124  0.3826  -1.8997   0.0000   0.4290
   2.000   1.6837   0.03188   0.02450  -0.2891  0.4003  0.4547  -2.0277   0.0000   0.4149
   3.000   1.7846   0.03345   0.02619  -0.2869  0.3873  0.5554  -2.1592   0.0000   0.4021
   4.000   1.8839   0.03479   0.02774  -0.2843  0.3782  0.6402  -2.3040   0.0000   0.3903
   5.000   1.9610   0.03674   0.02991  -0.2782  0.3695  0.6986  -2.4561   0.0000   0.3793
   6.000   2.0379   0.03900   0.03242  -0.2725  0.3583  0.7536  -2.6379   0.0000   0.3691
   7.000   2.1292   0.04100   0.03459  -0.2696  0.3448  0.8118  -2.9352   0.0000   0.3598


