XFLR5 v6.09.05 beta

 Calculated polar for: 10s1223

 1 1 Reynolds number fixed          Mach number fixed         

 xtrf =   1.000 (top)        1.000 (bottom)
 Mach =   0.000     Re =     0.350 e 6     Ncrit =   9.000

  alpha     CL        CD       CDp       Cm    Top Xtr Bot Xtr   Cpmin    Chinge    XCp    
 ------- -------- --------- --------- -------- ------- ------- -------- --------- ---------
   0.000   1.4820   0.02860   0.02116  -0.2934  0.4195  0.3297  -1.7689   0.0000   0.4449
   1.000   1.5844   0.03013   0.02277  -0.2916  0.4086  0.3748  -1.8998   0.0000   0.4291
   2.000   1.6812   0.03191   0.02461  -0.2888  0.3958  0.4489  -2.0284   0.0000   0.4149
   3.000   1.7925   0.03307   0.02587  -0.2883  0.3812  0.5501  -2.1669   0.0000   0.4021
   4.000   1.8769   0.03488   0.02797  -0.2833  0.3754  0.6320  -2.2995   0.0000   0.3903
   5.000   1.9549   0.03679   0.03005  -0.2774  0.3659  0.6914  -2.4516   0.0000   0.3793
   6.000   2.0334   0.03886   0.03229  -0.2718  0.3538  0.7414  -2.6343   0.0000   0.3690
   7.000   2.1206   0.04104   0.03474  -0.2683  0.3427  0.7957  -2.9229   0.0000   0.3597


