XFLR5 v6.09.05 beta

 Calculated polar for: 15s1223

 1 1 Reynolds number fixed          Mach number fixed         

 xtrf =   1.000 (top)        1.000 (bottom)
 Mach =   0.000     Re =     0.005 e 6     Ncrit =   9.000

  alpha     CL        CD       CDp       Cm    Top Xtr Bot Xtr   Cpmin    Chinge    XCp    
 ------- -------- --------- --------- -------- ------- ------- -------- --------- ---------
   0.000  -0.0526   0.11670   0.10340  -0.0049  1.0000  1.0000  -0.9126   0.0000   0.1355
   1.000  -0.0668   0.11195   0.09915  -0.0026  1.0000  1.0000  -0.9237   0.0000   0.1959
   2.000  -0.0805   0.10541   0.09307  -0.0006  1.0000  1.0000  -0.9350   0.0000   0.2316
   3.000  -0.0850   0.09728   0.08532  -0.0008  1.0000  1.0000  -0.9663   0.0000   0.2309
   4.000   0.4360   0.13178   0.11599  -0.1279  1.0000  1.0000  -0.8834   0.0000   0.5334
   5.000   0.7149   0.16664   0.14722  -0.1869  1.0000  1.0000  -0.7964   0.0000   0.4993
   6.000   0.8339   0.18755   0.16670  -0.2078  1.0000  1.0000  -0.8674   0.0000   0.4848
   7.000   0.9170   0.20548   0.18380  -0.2207  1.0000  1.0000  -0.9243   0.0000   0.4741
   8.000   0.9824   0.22221   0.20018  -0.2301  1.0000  1.0000  -0.9733   0.0000   0.4653
   9.000   1.0370   0.23852   0.21631  -0.2377  1.0000  1.0000  -1.0212   0.0000   0.4579
  10.000   1.0844   0.25489   0.23279  -0.2445  1.0000  1.0000  -1.0739   0.0000   0.4517
  11.000   1.1264   0.27149   0.24972  -0.2509  1.0000  1.0000  -1.1272   0.0000   0.4464
  12.000   1.1642   0.28852   0.26751  -0.2572  1.0000  1.0000  -1.1818   0.0000   0.4419
  13.000   1.1981   0.30630   0.28584  -0.2634  1.0000  1.0000  -1.2369   0.0000   0.4382
  14.000   1.2286   0.32496   0.30517  -0.2697  1.0000  1.0000  -1.2897   0.0000   0.4350
  15.000   1.2559   0.34459   0.32555  -0.2759  1.0000  1.0000  -1.3358   0.0000   0.4323
  16.000   1.2804   0.36522   0.34770  -0.2821  1.0000  1.0000  -1.3625   0.0000   0.4300
  21.000   1.3211   0.46678   0.45467  -0.3025  0.9663  1.0000  -1.3728   0.0000   0.4224
  22.000   1.2550   0.47472   0.46405  -0.2901  0.9165  1.0000  -1.2754   0.0000   0.4220
  23.000   1.1185   0.43472   0.42566  -0.2608  0.8497  1.0000  -1.0482   0.0000   0.4226
  24.000   1.0853   0.42905   0.42093  -0.2550  0.8136  1.0000  -1.0190   0.0000   0.4216
  25.000   1.0555   0.42029   0.41305  -0.2498  0.7684  1.0000  -0.9848   0.0000   0.4204


