XFLR5 v6.09.05 beta

 Calculated polar for: 15s1223

 1 1 Reynolds number fixed          Mach number fixed         

 xtrf =   1.000 (top)        1.000 (bottom)
 Mach =   0.000     Re =     0.260 e 6     Ncrit =   9.000

  alpha     CL        CD       CDp       Cm    Top Xtr Bot Xtr   Cpmin    Chinge    XCp    
 ------- -------- --------- --------- -------- ------- ------- -------- --------- ---------
   0.000   1.5592   0.04239   0.03508  -0.2945  0.4389  0.3652  -1.8382   0.0000   0.4350
   1.000   1.6802   0.04293   0.03537  -0.2954  0.4192  0.4200  -1.9855   0.0000   0.4201
   2.000   1.7704   0.04466   0.03737  -0.2915  0.4098  0.4926  -2.1075   0.0000   0.4070
   3.000   1.8593   0.04617   0.03910  -0.2873  0.3988  0.5644  -2.2372   0.0000   0.3949
   4.000   1.9517   0.04697   0.03991  -0.2834  0.3861  0.6231  -2.3875   0.0000   0.3836
   5.000   2.0311   0.04871   0.04207  -0.2779  0.3769  0.6730  -2.5589   0.0000   0.3732
   6.000   2.0924   0.05172   0.04538  -0.2702  0.3653  0.7184  -2.7440   0.0000   0.3633
   7.000   2.1717   0.05424   0.04797  -0.2656  0.3511  0.7642  -3.0757   0.0000   0.3543
   8.000   2.2207   0.05861   0.05286  -0.2573  0.3382  0.8027  -3.3647   0.0000   0.3454
   9.000   2.2500   0.06354   0.05798  -0.2466  0.3205  0.8405  -3.6285   0.0000   0.3366
  19.000   1.9718   0.22402   0.22117  -0.2393  0.0739  1.0000  -5.3053   0.0000   0.3157
  20.000   1.9444   0.24489   0.24217  -0.2458  0.0635  1.0000  -5.7469   0.0000   0.3170
  21.000   1.9199   0.26532   0.26304  -0.2517  0.0569  1.0000  -6.2345   0.0000   0.3177
  22.000   1.8789   0.28883   0.28668  -0.2576  0.0487  1.0000  -6.6229   0.0000   0.3196


