XFLR5 v6.09.05 beta

 Calculated polar for: 15s1223

 1 1 Reynolds number fixed          Mach number fixed         

 xtrf =   1.000 (top)        1.000 (bottom)
 Mach =   0.000     Re =     0.225 e 6     Ncrit =   9.000

  alpha     CL        CD       CDp       Cm    Top Xtr Bot Xtr   Cpmin    Chinge    XCp    
 ------- -------- --------- --------- -------- ------- ------- -------- --------- ---------
   0.000   1.5699   0.04148   0.03396  -0.2957  0.4493  0.3818  -1.8433   0.0000   0.4346
   1.000   1.6725   0.04310   0.03555  -0.2939  0.4336  0.4324  -1.9744   0.0000   0.4200
   2.000   1.7902   0.04354   0.03589  -0.2941  0.4171  0.5101  -2.1185   0.0000   0.4067
   3.000   1.8711   0.04536   0.03812  -0.2886  0.4082  0.5772  -2.2415   0.0000   0.3947
   4.000   1.9490   0.04702   0.03995  -0.2825  0.3970  0.6358  -2.3783   0.0000   0.3835
   5.000   2.0581   0.04802   0.04106  -0.2817  0.3822  0.6965  -2.5833   0.0000   0.3734
   6.000   2.1100   0.05157   0.04507  -0.2726  0.3733  0.7433  -2.7655   0.0000   0.3635
   7.000   2.1742   0.05506   0.04882  -0.2660  0.3597  0.7890  -3.0725   0.0000   0.3544
   8.000   2.2414   0.05837   0.05243  -0.2601  0.3440  0.8374  -3.3943   0.0000   0.3458
  19.000   1.9651   0.22392   0.22106  -0.2382  0.0793  1.0000  -5.2231   0.0000   0.3156
  20.000   1.9389   0.24478   0.24223  -0.2448  0.0695  1.0000  -5.6686   0.0000   0.3169
  21.000   1.9148   0.26480   0.26255  -0.2504  0.0615  1.0000  -6.1538   0.0000   0.3174
  22.000   1.8593   0.29238   0.29061  -0.2575  0.0546  1.0000  -6.4165   0.0000   0.3211


