XFLR5 v6.09.05 beta

 Calculated polar for: 15s1223

 1 1 Reynolds number fixed          Mach number fixed         

 xtrf =   1.000 (top)        1.000 (bottom)
 Mach =   0.000     Re =     0.110 e 6     Ncrit =   9.000

  alpha     CL        CD       CDp       Cm    Top Xtr Bot Xtr   Cpmin    Chinge    XCp    
 ------- -------- --------- --------- -------- ------- ------- -------- --------- ---------
   0.000   1.5677   0.04019   0.03198  -0.2923  0.5259  0.4624  -1.8169   0.0000   0.4331
   1.000   1.6890   0.04213   0.03380  -0.2939  0.5036  0.5175  -1.9541   0.0000   0.4189
   2.000   1.8030   0.04459   0.03627  -0.2943  0.4847  0.5878  -2.0895   0.0000   0.4063
   3.000   1.8924   0.04762   0.03960  -0.2907  0.4692  0.6687  -2.2184   0.0000   0.3947
   4.000   2.0202   0.05148   0.04347  -0.2946  0.4536  0.7732  -2.4088   0.0000   0.3850
   5.000   2.0518   0.05769   0.05055  -0.2830  0.4400  0.8446  -2.5234   0.0000   0.3749


