XFLR5 v6.09.05 beta

 Calculated polar for: 15s1223

 1 1 Reynolds number fixed          Mach number fixed         

 xtrf =   1.000 (top)        1.000 (bottom)
 Mach =   0.000     Re =     0.175 e 6     Ncrit =   9.000

  alpha     CL        CD       CDp       Cm    Top Xtr Bot Xtr   Cpmin    Chinge    XCp    
 ------- -------- --------- --------- -------- ------- ------- -------- --------- ---------
   0.000   1.5646   0.04093   0.03320  -0.2938  0.4722  0.4063  -1.8318   0.0000   0.4341
   1.000   1.7012   0.04165   0.03363  -0.2976  0.4530  0.4648  -1.9881   0.0000   0.4195
   2.000   1.7869   0.04357   0.03581  -0.2928  0.4388  0.5317  -2.1025   0.0000   0.4065
   3.000   1.8851   0.04499   0.03730  -0.2900  0.4257  0.6046  -2.2437   0.0000   0.3946
   4.000   1.9829   0.04680   0.03934  -0.2874  0.4139  0.6690  -2.4003   0.0000   0.3837
   5.000   2.0501   0.04995   0.04302  -0.2803  0.4020  0.7321  -2.5610   0.0000   0.3734
   6.000   2.1434   0.05250   0.04563  -0.2780  0.3876  0.7955  -2.8096   0.0000   0.3642
   7.000   2.1946   0.05731   0.05096  -0.2696  0.3738  0.8522  -3.0902   0.0000   0.3551
  18.000   2.0029   0.19783   0.19516  -0.2259  0.1123  1.0000  -4.8775   0.0000   0.3111
  19.000   1.9702   0.21930   0.21680  -0.2333  0.0952  1.0000  -5.1824   0.0000   0.3130
  20.000   1.9403   0.24071   0.23830  -0.2404  0.0802  1.0000  -5.6061   0.0000   0.3146
  21.000   1.8741   0.27299   0.27118  -0.2510  0.0709  1.0000  -5.7296   0.0000   0.3208


