XFLR5 v6.09.05 beta

 Calculated polar for: 15s1223

 1 1 Reynolds number fixed          Mach number fixed         

 xtrf =   1.000 (top)        1.000 (bottom)
 Mach =   0.000     Re =     0.030 e 6     Ncrit =   9.000

  alpha     CL        CD       CDp       Cm    Top Xtr Bot Xtr   Cpmin    Chinge    XCp    
 ------- -------- --------- --------- -------- ------- ------- -------- --------- ---------
   0.000  -0.1012   0.13231   0.12767  -0.0353  0.8932  0.3718  -0.7289   0.0000  -0.1171
   1.000  -0.0762   0.12596   0.12150  -0.0326  0.8808  0.4502  -0.6797   0.0000  -0.1961
   2.000   0.0104   0.12506   0.12068  -0.0435  0.8696  0.5619  -0.6237   0.0000   4.5099
   3.000   0.0277   0.11774   0.11351  -0.0371  0.8610  0.6813  -0.6019   0.0000   1.5894
   4.000   0.7429   0.15683   0.15067  -0.1996  0.8430  0.7014  -0.7693   0.0000   0.5097
   5.000   0.8827   0.17642   0.16959  -0.2205  0.8184  0.8159  -0.8627   0.0000   0.4883
   6.000   0.9623   0.18266   0.17568  -0.2324  0.7935  0.8979  -0.9182   0.0000   0.4778


