XFLR5 v6.09.05 beta

 Calculated polar for: 15s1223

 1 1 Reynolds number fixed          Mach number fixed         

 xtrf =   1.000 (top)        1.000 (bottom)
 Mach =   0.000     Re =     0.275 e 6     Ncrit =   9.000

  alpha     CL        CD       CDp       Cm    Top Xtr Bot Xtr   Cpmin    Chinge    XCp    
 ------- -------- --------- --------- -------- ------- ------- -------- --------- ---------
   0.000   1.5590   0.04264   0.03539  -0.2947  0.4346  0.3619  -1.8397   0.0000   0.4351
   1.000   1.6736   0.04334   0.03588  -0.2946  0.4166  0.4113  -1.9815   0.0000   0.4202
   2.000   1.7653   0.04510   0.03791  -0.2910  0.4064  0.4862  -2.1053   0.0000   0.4071
   3.000   1.8542   0.04657   0.03953  -0.2868  0.3953  0.5585  -2.2350   0.0000   0.3950
   4.000   1.9613   0.04664   0.03963  -0.2851  0.3814  0.6205  -2.3977   0.0000   0.3838
   5.000   2.0238   0.04909   0.04242  -0.2770  0.3742  0.6667  -2.5526   0.0000   0.3732
   6.000   2.0865   0.05187   0.04556  -0.2695  0.3623  0.7102  -2.7386   0.0000   0.3633
   7.000   2.1807   0.05369   0.04743  -0.2670  0.3465  0.7562  -3.0926   0.0000   0.3544
   8.000   2.2139   0.05877   0.05307  -0.2564  0.3356  0.7900  -3.3552   0.0000   0.3453
  19.000   1.9737   0.22418   0.22127  -0.2397  0.0716  1.0000  -5.3311   0.0000   0.3158
  20.000   1.9463   0.24513   0.24244  -0.2463  0.0622  1.0000  -5.7739   0.0000   0.3171
  21.000   1.9189   0.26626   0.26392  -0.2524  0.0550  1.0000  -6.2402   0.0000   0.3181
  22.000   1.8793   0.28947   0.28736  -0.2582  0.0478  1.0000  -6.6398   0.0000   0.3199


