XFLR5 v6.09.05 beta

 Calculated polar for: 15s1223

 1 1 Reynolds number fixed          Mach number fixed         

 xtrf =   1.000 (top)        1.000 (bottom)
 Mach =   0.000     Re =     0.290 e 6     Ncrit =   9.000

  alpha     CL        CD       CDp       Cm    Top Xtr Bot Xtr   Cpmin    Chinge    XCp    
 ------- -------- --------- --------- -------- ------- ------- -------- --------- ---------
   0.000   1.5593   0.04284   0.03563  -0.2950  0.4303  0.3583  -1.8413   0.0000   0.4352
   1.000   1.6689   0.04382   0.03650  -0.2941  0.4144  0.4076  -1.9790   0.0000   0.4204
   2.000   1.7621   0.04546   0.03834  -0.2907  0.4031  0.4807  -2.1047   0.0000   0.4072
   3.000   1.8518   0.04679   0.03977  -0.2866  0.3917  0.5536  -2.2348   0.0000   0.3950
   4.000   1.9533   0.04715   0.04026  -0.2841  0.3799  0.6157  -2.3917   0.0000   0.3838
   5.000   2.0178   0.04951   0.04291  -0.2764  0.3715  0.6619  -2.5476   0.0000   0.3732
   6.000   2.0812   0.05205   0.04575  -0.2688  0.3596  0.7039  -2.7336   0.0000   0.3633
   7.000   2.1673   0.05392   0.04775  -0.2650  0.3454  0.7456  -3.0708   0.0000   0.3542
   8.000   2.2072   0.05902   0.05337  -0.2555  0.3332  0.7814  -3.3452   0.0000   0.3452
   9.000   2.2578   0.06288   0.05727  -0.2477  0.3128  0.8176  -3.6482   0.0000   0.3367
  19.000   1.9740   0.22466   0.22169  -0.2402  0.0694  1.0000  -5.3439   0.0000   0.3161
  20.000   1.9493   0.24498   0.24231  -0.2465  0.0607  1.0000  -5.8094   0.0000   0.3170
  21.000   1.9172   0.26734   0.26492  -0.2532  0.0531  1.0000  -6.2378   0.0000   0.3186
  22.000   1.8813   0.28960   0.28751  -0.2586  0.0467  1.0000  -6.6687   0.0000   0.3199


