XFLR5 v6.09.05 beta

 Calculated polar for: 15s1223

 1 1 Reynolds number fixed          Mach number fixed         

 xtrf =   1.000 (top)        1.000 (bottom)
 Mach =   0.000     Re =     0.190 e 6     Ncrit =   9.000

  alpha     CL        CD       CDp       Cm    Top Xtr Bot Xtr   Cpmin    Chinge    XCp    
 ------- -------- --------- --------- -------- ------- ------- -------- --------- ---------
   0.000   1.5660   0.04106   0.03334  -0.2943  0.4637  0.3980  -1.8362   0.0000   0.4342
   1.000   1.6859   0.04219   0.03439  -0.2954  0.4471  0.4524  -1.9783   0.0000   0.4197
   2.000   1.7804   0.04383   0.03615  -0.2921  0.4320  0.5230  -2.1024   0.0000   0.4066
   3.000   1.9017   0.04443   0.03676  -0.2929  0.4176  0.6001  -2.2618   0.0000   0.3947
   4.000   1.9678   0.04686   0.03957  -0.2851  0.4085  0.6578  -2.3885   0.0000   0.3836
   5.000   2.0434   0.04928   0.04238  -0.2792  0.3963  0.7159  -2.5593   0.0000   0.3732
   6.000   2.1506   0.05194   0.04512  -0.2791  0.3809  0.7802  -2.8251   0.0000   0.3643
  18.000   2.0002   0.19950   0.19663  -0.2278  0.1059  1.0000  -4.8739   0.0000   0.3121
  19.000   1.9645   0.22204   0.21944  -0.2358  0.0894  1.0000  -5.1701   0.0000   0.3145
  20.000   1.9342   0.24381   0.24143  -0.2429  0.0763  1.0000  -5.5816   0.0000   0.3162
  21.000   1.9013   0.26633   0.26420  -0.2496  0.0670  1.0000  -5.9928   0.0000   0.3180


