XFLR5 v6.09.05 beta

 Calculated polar for: 15s1223

 1 1 Reynolds number fixed          Mach number fixed         

 xtrf =   1.000 (top)        1.000 (bottom)
 Mach =   0.000     Re =     0.230 e 6     Ncrit =   9.000

  alpha     CL        CD       CDp       Cm    Top Xtr Bot Xtr   Cpmin    Chinge    XCp    
 ------- -------- --------- --------- -------- ------- ------- -------- --------- ---------
   0.000   1.5683   0.04166   0.03417  -0.2955  0.4478  0.3795  -1.8425   0.0000   0.4346
   1.000   1.6715   0.04321   0.03567  -0.2938  0.4318  0.4301  -1.9745   0.0000   0.4201
   2.000   1.7857   0.04372   0.03612  -0.2935  0.4162  0.5063  -2.1157   0.0000   0.4068
   3.000   1.8690   0.04548   0.03827  -0.2883  0.4067  0.5751  -2.2405   0.0000   0.3947
   4.000   1.9476   0.04707   0.04000  -0.2824  0.3955  0.6332  -2.3782   0.0000   0.3835
   5.000   2.0543   0.04806   0.04116  -0.2811  0.3814  0.6929  -2.5800   0.0000   0.3734
   6.000   2.1072   0.05157   0.04511  -0.2722  0.3721  0.7399  -2.7620   0.0000   0.3635
   7.000   2.1721   0.05493   0.04870  -0.2657  0.3586  0.7848  -3.0703   0.0000   0.3543
   8.000   2.2372   0.05842   0.05252  -0.2595  0.3432  0.8303  -3.3880   0.0000   0.3457
  19.000   1.9659   0.22404   0.22119  -0.2384  0.0785  1.0000  -5.2331   0.0000   0.3157
  20.000   1.9391   0.24498   0.24240  -0.2451  0.0686  1.0000  -5.6759   0.0000   0.3170
  21.000   1.9154   0.26495   0.26271  -0.2506  0.0609  1.0000  -6.1645   0.0000   0.3175
  22.000   1.8628   0.29177   0.28994  -0.2575  0.0538  1.0000  -6.4524   0.0000   0.3208


