XFLR5 v6.09.05 beta

 Calculated polar for: 20s1223

 1 1 Reynolds number fixed          Mach number fixed         

 xtrf =   1.000 (top)        1.000 (bottom)
 Mach =   0.000     Re =     0.350 e 6     Ncrit =   9.000

  alpha     CL        CD       CDp       Cm    Top Xtr Bot Xtr   Cpmin    Chinge    XCp    
 ------- -------- --------- --------- -------- ------- ------- -------- --------- ---------
   0.000   1.6030   0.06174   0.05519  -0.2920  0.4129  0.3519  -1.8920   0.0000   0.4269
   1.000   1.6936   0.06380   0.05725  -0.2884  0.3998  0.3974  -2.0177   0.0000   0.4130
   2.000   1.7943   0.06379   0.05722  -0.2858  0.3850  0.4604  -2.1520   0.0000   0.4000
   3.000   1.8801   0.06501   0.05869  -0.2814  0.3782  0.5223  -2.2835   0.0000   0.3884
   4.000   1.9504   0.06691   0.06080  -0.2748  0.3690  0.5702  -2.4189   0.0000   0.3775
   5.000   2.0141   0.06856   0.06268  -0.2673  0.3582  0.6102  -2.5838   0.0000   0.3672
   6.000   2.0880   0.06873   0.06301  -0.2612  0.3451  0.6430  -2.8230   0.0000   0.3574
   7.000   2.1374   0.07212   0.06673  -0.2527  0.3350  0.6714  -3.1057   0.0000   0.3482
   8.000   2.1880   0.07494   0.06965  -0.2447  0.3166  0.7021  -3.4007   0.0000   0.3393
   9.000   2.2340   0.07950   0.07465  -0.2373  0.3041  0.7257  -3.6947   0.0000   0.3311
  10.000   2.2789   0.08327   0.07861  -0.2301  0.2868  0.7514  -4.0273   0.0000   0.3232
  11.000   2.3275   0.08811   0.08364  -0.2248  0.2544  0.7778  -4.3886   0.0000   0.3160
  12.000   2.3103   0.09873   0.09416  -0.2161  0.1974  0.7908  -4.5938   0.0000   0.3097
  13.000   2.2542   0.11572   0.11130  -0.2110  0.1557  0.8022  -4.6809   0.0000   0.3064
  14.000   2.1870   0.13663   0.13252  -0.2126  0.1294  0.8133  -4.7060   0.0000   0.3063
  15.000   2.1221   0.15968   0.15589  -0.2183  0.1082  0.8227  -4.7073   0.0000   0.3083
  16.000   2.0668   0.18327   0.17976  -0.2256  0.0907  0.8301  -4.7153   0.0000   0.3108
  17.000   2.0270   0.20533   0.20210  -0.2325  0.0769  0.8426  -4.8318   0.0000   0.3126
  19.000   1.9680   0.24733   0.24465  -0.2452  0.0571  1.0000  -5.7049   0.0000   0.3146
  20.000   1.9328   0.26975   0.26720  -0.2512  0.0479  1.0000  -6.1239   0.0000   0.3159
  21.000   1.8976   0.29103   0.28887  -0.2557  0.0426  1.0000  -6.5832   0.0000   0.3165
  23.000   1.4064   0.30219   0.30145  -0.2304  0.0344  1.0000  -5.1942   0.0000   0.3379


