XFLR5 v6.09.05 beta

 Calculated polar for: 20s1223

 1 1 Reynolds number fixed          Mach number fixed         

 xtrf =   1.000 (top)        1.000 (bottom)
 Mach =   0.000     Re =     0.085 e 6     Ncrit =   9.000

  alpha     CL        CD       CDp       Cm    Top Xtr Bot Xtr   Cpmin    Chinge    XCp    
 ------- -------- --------- --------- -------- ------- ------- -------- --------- ---------
   1.000   1.6811   0.05238   0.04429  -0.2779  0.5367  0.5479  -1.9428   0.0000   0.4094
   2.000   1.7566   0.05817   0.05041  -0.2742  0.5150  0.6003  -2.0402   0.0000   0.3982
   3.000   1.9009   0.06118   0.05339  -0.2800  0.4974  0.6954  -2.2249   0.0000   0.3875
   4.000   1.8038   0.07800   0.07138  -0.2546  0.4809  0.7154  -2.1601   0.0000   0.3789
   5.000   1.7386   0.09723   0.09123  -0.2396  0.4614  0.7508  -2.1273   0.0000   0.3732


