XFLR5 v6.09.05 beta

 Calculated polar for: 20s1223

 1 1 Reynolds number fixed          Mach number fixed         

 xtrf =   1.000 (top)        1.000 (bottom)
 Mach =   0.000     Re =     0.070 e 6     Ncrit =   9.000

  alpha     CL        CD       CDp       Cm    Top Xtr Bot Xtr   Cpmin    Chinge    XCp    
 ------- -------- --------- --------- -------- ------- ------- -------- --------- ---------
   1.000   1.5938   0.05641   0.04854  -0.2646  0.5697  0.5737  -1.8480   0.0000   0.4102
   2.000   1.6569   0.06426   0.05667  -0.2604  0.5445  0.6236  -1.9251   0.0000   0.3993
   3.000   1.1452   0.13426   0.12882  -0.2279  0.5159  0.5373  -1.2346   0.0000   0.4395
   4.000   1.2051   0.15751   0.15221  -0.2415  0.5309  0.5649  -1.2444   0.0000   0.4390
   5.000   1.1472   0.17660   0.17174  -0.2484  0.5605  0.5735  -1.1133   0.0000   0.4532


