XFLR5 v6.09.05 beta

 Calculated polar for: 20s1223

 1 1 Reynolds number fixed          Mach number fixed         

 xtrf =   1.000 (top)        1.000 (bottom)
 Mach =   0.000     Re =     0.080 e 6     Ncrit =   9.000

  alpha     CL        CD       CDp       Cm    Top Xtr Bot Xtr   Cpmin    Chinge    XCp    
 ------- -------- --------- --------- -------- ------- ------- -------- --------- ---------
   0.000   1.5039   0.05086   0.04309  -0.2659  0.5729  0.5073  -1.7606   0.0000   0.4227
   1.000   1.6298   0.05448   0.04666  -0.2702  0.5466  0.5498  -1.8902   0.0000   0.4098
   2.000   1.7524   0.05926   0.05144  -0.2739  0.5242  0.6128  -2.0303   0.0000   0.3985
   3.000   1.8086   0.06582   0.05846  -0.2672  0.5061  0.6800  -2.1218   0.0000   0.3878
   5.000   1.4817   0.13439   0.12894  -0.2354  0.4579  0.6628  -1.7197   0.0000   0.3943


