XFLR5 v6.09.05 beta

 Calculated polar for: 20s1223

 1 1 Reynolds number fixed          Mach number fixed         

 xtrf =   1.000 (top)        1.000 (bottom)
 Mach =   0.000     Re =     0.095 e 6     Ncrit =   9.000

  alpha     CL        CD       CDp       Cm    Top Xtr Bot Xtr   Cpmin    Chinge    XCp    
 ------- -------- --------- --------- -------- ------- ------- -------- --------- ---------
   0.000   1.5287   0.05027   0.04268  -0.2708  0.5442  0.4742  -1.7895   0.0000   0.4229
   1.000   1.6794   0.05287   0.04506  -0.2785  0.5210  0.5236  -1.9456   0.0000   0.4098
   2.000   1.8151   0.05486   0.04693  -0.2826  0.4993  0.5898  -2.1085   0.0000   0.3978
   3.000   1.8799   0.06101   0.05354  -0.2769  0.4846  0.6602  -2.2108   0.0000   0.3874
   4.000   1.9368   0.06697   0.05987  -0.2699  0.4676  0.7313  -2.3317   0.0000   0.3773
   5.000   1.9595   0.07784   0.07125  -0.2604  0.4522  0.7930  -2.4265   0.0000   0.3685
   6.000   1.6322   0.12334   0.11819  -0.2320  0.4228  0.7312  -2.0117   0.0000   0.3749


