XFLR5 v6.09.05 beta

 Calculated polar for: 20s1223

 1 1 Reynolds number fixed          Mach number fixed         

 xtrf =   1.000 (top)        1.000 (bottom)
 Mach =   0.000     Re =     0.275 e 6     Ncrit =   9.000

  alpha     CL        CD       CDp       Cm    Top Xtr Bot Xtr   Cpmin    Chinge    XCp    
 ------- -------- --------- --------- -------- ------- ------- -------- --------- ---------
   0.000   1.6032   0.05947   0.05255  -0.2909  0.4286  0.3680  -1.8880   0.0000   0.4263
   1.000   1.7180   0.05968   0.05271  -0.2907  0.4140  0.4192  -2.0328   0.0000   0.4122
   2.000   1.8058   0.06113   0.05443  -0.2865  0.4029  0.4826  -2.1546   0.0000   0.3996
   3.000   1.8917   0.06180   0.05515  -0.2818  0.3918  0.5399  -2.2889   0.0000   0.3879
   4.000   1.9837   0.06132   0.05480  -0.2778  0.3803  0.5888  -2.4498   0.0000   0.3770
   5.000   2.0389   0.06384   0.05778  -0.2691  0.3710  0.6261  -2.6041   0.0000   0.3668
   6.000   2.0933   0.06660   0.06071  -0.2608  0.3584  0.6636  -2.8236   0.0000   0.3571
   7.000   2.1676   0.06770   0.06200  -0.2554  0.3447  0.7011  -3.1488   0.0000   0.3481
   8.000   2.1976   0.07305   0.06785  -0.2453  0.3308  0.7315  -3.4075   0.0000   0.3393
   9.000   2.2527   0.07599   0.07089  -0.2387  0.3115  0.7626  -3.7210   0.0000   0.3311
  10.000   2.2814   0.08176   0.07717  -0.2302  0.2967  0.7882  -4.0198   0.0000   0.3232
  11.000   2.3226   0.08614   0.08182  -0.2237  0.2769  0.8161  -4.3590   0.0000   0.3158
  12.000   2.3348   0.09408   0.08997  -0.2162  0.2401  0.8341  -4.6373   0.0000   0.3091
  14.000   2.2000   0.13323   0.12947  -0.2102  0.1559  0.8935  -4.7330   0.0000   0.3048
  15.000   2.1194   0.15882   0.15530  -0.2168  0.1276  1.0000  -4.6877   0.0000   0.3077
  16.000   2.0570   0.18376   0.18045  -0.2248  0.1047  1.0000  -4.6716   0.0000   0.3110
  17.000   2.0184   0.20553   0.20249  -0.2316  0.0882  1.0000  -4.7611   0.0000   0.3127
  18.000   1.9873   0.22651   0.22372  -0.2380  0.0757  1.0000  -5.1415   0.0000   0.3138
  19.000   1.9567   0.24777   0.24510  -0.2442  0.0644  1.0000  -5.5691   0.0000   0.3149
  20.000   1.9334   0.26720   0.26494  -0.2490  0.0574  1.0000  -6.0772   0.0000   0.3148
  21.000   1.8828   0.29235   0.29028  -0.2547  0.0494  1.0000  -6.4098   0.0000   0.3171


