XFLR5 v6.09.05 beta

 Calculated polar for: 20s1223

 1 1 Reynolds number fixed          Mach number fixed         

 xtrf =   1.000 (top)        1.000 (bottom)
 Mach =   0.000     Re =     0.335 e 6     Ncrit =   9.000

  alpha     CL        CD       CDp       Cm    Top Xtr Bot Xtr   Cpmin    Chinge    XCp    
 ------- -------- --------- --------- -------- ------- ------- -------- --------- ---------
   0.000   1.6039   0.06122   0.05459  -0.2919  0.4151  0.3551  -1.8919   0.0000   0.4268
   1.000   1.6949   0.06331   0.05672  -0.2884  0.4025  0.4008  -2.0176   0.0000   0.4129
   2.000   1.7878   0.06419   0.05761  -0.2848  0.3893  0.4616  -2.1454   0.0000   0.4001
   3.000   1.8891   0.06373   0.05732  -0.2823  0.3798  0.5269  -2.2910   0.0000   0.3883
   4.000   1.9544   0.06604   0.05988  -0.2751  0.3712  0.5731  -2.4222   0.0000   0.3774
   5.000   2.0166   0.06795   0.06206  -0.2674  0.3606  0.6134  -2.5854   0.0000   0.3671
   6.000   2.0951   0.06768   0.06188  -0.2618  0.3462  0.6476  -2.8335   0.0000   0.3574
   7.000   2.1398   0.07147   0.06604  -0.2528  0.3369  0.6752  -3.1082   0.0000   0.3481
   8.000   2.1840   0.07485   0.06959  -0.2440  0.3205  0.7055  -3.3915   0.0000   0.3393
   9.000   2.2394   0.07859   0.07370  -0.2378  0.3056  0.7325  -3.7035   0.0000   0.3311
  10.000   2.2805   0.08316   0.07851  -0.2303  0.2887  0.7578  -4.0295   0.0000   0.3232
  11.000   2.3288   0.08756   0.08319  -0.2248  0.2604  0.7843  -4.3885   0.0000   0.3159
  12.000   2.3182   0.09766   0.09319  -0.2163  0.2057  0.7991  -4.6111   0.0000   0.3096
  13.000   2.2552   0.11534   0.11097  -0.2108  0.1616  0.8099  -4.6817   0.0000   0.3062
  14.000   2.1878   0.13625   0.13219  -0.2122  0.1334  0.8208  -4.7066   0.0000   0.3061
  15.000   2.1219   0.15945   0.15571  -0.2179  0.1117  0.8293  -4.7047   0.0000   0.3082
  16.000   2.0652   0.18331   0.17984  -0.2254  0.0934  0.8391  -4.7080   0.0000   0.3108
  17.000   2.0235   0.20597   0.20277  -0.2327  0.0786  0.8565  -4.8003   0.0000   0.3129
  18.000   1.9914   0.22741   0.22444  -0.2394  0.0671  1.0000  -5.2084   0.0000   0.3142
  19.000   1.9661   0.24740   0.24474  -0.2450  0.0587  1.0000  -5.6816   0.0000   0.3147
  20.000   1.9325   0.26943   0.26693  -0.2509  0.0499  1.0000  -6.1144   0.0000   0.3158
  21.000   1.8955   0.29116   0.28904  -0.2555  0.0441  1.0000  -6.5567   0.0000   0.3165


