XFLR5 v6.09.05 beta

 Calculated polar for: 20s1223

 1 1 Reynolds number fixed          Mach number fixed         

 xtrf =   1.000 (top)        1.000 (bottom)
 Mach =   0.000     Re =     0.310 e 6     Ncrit =   9.000

  alpha     CL        CD       CDp       Cm    Top Xtr Bot Xtr   Cpmin    Chinge    XCp    
 ------- -------- --------- --------- -------- ------- ------- -------- --------- ---------
   0.000   1.6094   0.05994   0.05313  -0.2922  0.4183  0.3614  -1.8952   0.0000   0.4264
   1.000   1.6993   0.06225   0.05555  -0.2886  0.4071  0.4072  -2.0191   0.0000   0.4127
   2.000   1.7897   0.06364   0.05705  -0.2849  0.3954  0.4698  -2.1447   0.0000   0.4000
   3.000   1.9055   0.06150   0.05491  -0.2842  0.3822  0.5346  -2.3047   0.0000   0.3880
   4.000   1.9681   0.06384   0.05755  -0.2764  0.3751  0.5790  -2.4356   0.0000   0.3772
   5.000   2.0242   0.06638   0.06044  -0.2679  0.3646  0.6180  -2.5916   0.0000   0.3670
   6.000   2.1016   0.06649   0.06056  -0.2623  0.3494  0.6552  -2.8422   0.0000   0.3573
   7.000   2.1458   0.07027   0.06477  -0.2532  0.3403  0.6837  -3.1155   0.0000   0.3481
   8.000   2.1898   0.07428   0.06906  -0.2446  0.3249  0.7142  -3.3995   0.0000   0.3393
   9.000   2.2427   0.07752   0.07255  -0.2378  0.3082  0.7441  -3.7067   0.0000   0.3310
  10.000   2.2813   0.08274   0.07813  -0.2304  0.2920  0.7700  -4.0275   0.0000   0.3232
  11.000   2.3273   0.08687   0.08260  -0.2244  0.2690  0.7945  -4.3787   0.0000   0.3159
  12.000   2.3208   0.09680   0.09242  -0.2160  0.2209  0.8129  -4.6126   0.0000   0.3094
  13.000   2.2612   0.11408   0.10981  -0.2102  0.1730  0.8236  -4.6939   0.0000   0.3058
  14.000   2.1846   0.13631   0.13231  -0.2118  0.1411  0.8335  -4.6937   0.0000   0.3061
  15.000   2.1171   0.15987   0.15619  -0.2177  0.1174  0.8456  -4.6860   0.0000   0.3083
  16.000   2.0601   0.18411   0.18071  -0.2255  0.0976  0.8628  -4.6865   0.0000   0.3111
  17.000   2.0172   0.20690   0.20372  -0.2329  0.0813  1.0000  -4.7601   0.0000   0.3133
  18.000   1.9917   0.22660   0.22372  -0.2387  0.0706  1.0000  -5.1975   0.0000   0.3139
  19.000   1.9619   0.24773   0.24507  -0.2448  0.0611  1.0000  -5.6331   0.0000   0.3148
  20.000   1.9352   0.26796   0.26556  -0.2500  0.0531  1.0000  -6.1203   0.0000   0.3152
  21.000   1.8902   0.29173   0.28962  -0.2552  0.0462  1.0000  -6.4967   0.0000   0.3168


