XFLR5 v6.09.05 beta

 Calculated polar for: 25s1223

 1 1 Reynolds number fixed          Mach number fixed         

 xtrf =   1.000 (top)        1.000 (bottom)
 Mach =   0.000     Re =     0.095 e 6     Ncrit =   9.000

  alpha     CL        CD       CDp       Cm    Top Xtr Bot Xtr   Cpmin    Chinge    XCp    
 ------- -------- --------- --------- -------- ------- ------- -------- --------- ---------
   0.000   1.5195   0.05906   0.05182  -0.2561  0.5404  0.4748  -1.7913   0.0000   0.4132
   1.000   1.6414   0.06428   0.05710  -0.2606  0.5176  0.5097  -1.9184   0.0000   0.4014
   2.000   1.8022   0.06561   0.05825  -0.2686  0.4972  0.5722  -2.1086   0.0000   0.3899
   3.000   1.8010   0.07546   0.06885  -0.2552  0.4819  0.6113  -2.1425   0.0000   0.3802
   4.000   1.8822   0.07946   0.07298  -0.2518  0.4649  0.6808  -2.2956   0.0000   0.3701
   5.000   1.4817   0.14218   0.13739  -0.2326  0.4266  0.5931  -1.7267   0.0000   0.3903
   7.000   1.5321   0.17152   0.16713  -0.2344  0.3855  0.6962  -1.8488   0.0000   0.3813
  11.000   1.5337   0.25133   0.24816  -0.2571  0.2617  0.8574  -2.0207   0.0000   0.3841
  12.000   1.5441   0.26989   0.26699  -0.2602  0.2331  0.9001  -2.0931   0.0000   0.3817


