XFLR5 v6.09.05 beta

 Calculated polar for: 25s1223

 1 1 Reynolds number fixed          Mach number fixed         

 xtrf =   1.000 (top)        1.000 (bottom)
 Mach =   0.000     Re =     0.060 e 6     Ncrit =   9.000

  alpha     CL        CD       CDp       Cm    Top Xtr Bot Xtr   Cpmin    Chinge    XCp    
 ------- -------- --------- --------- -------- ------- ------- -------- --------- ---------
   1.000   0.9659   0.11714   0.11190  -0.2001  0.5726  0.4438  -1.1091   0.0000   0.4506
   2.000   0.9988   0.13763   0.13240  -0.2106  0.5730  0.5170  -1.0707   0.0000   0.4523
   3.000   0.9483   0.16177   0.15709  -0.2182  0.6576  0.5264  -0.9311   0.0000   0.4698
   4.000   1.0216   0.16993   0.16510  -0.2263  0.6229  0.5752  -0.9849   0.0000   0.4585
   5.000   1.1092   0.18314   0.17825  -0.2366  0.5863  0.6064  -1.0659   0.0000   0.4477
   6.000   1.1759   0.19598   0.19111  -0.2426  0.5489  0.6555  -1.1358   0.0000   0.4381
   7.000   1.2345   0.21099   0.20621  -0.2494  0.5138  0.7014  -1.2022   0.0000   0.4311
   8.000   1.2885   0.22752   0.22301  -0.2556  0.4786  0.7785  -1.2738   0.0000   0.4246
   9.000   1.3421   0.24675   0.24240  -0.2628  0.4422  0.8477  -1.3639   0.0000   0.4191
  10.000   1.3820   0.26694   0.26282  -0.2681  0.4104  0.9117  -1.4580   0.0000   0.4144
  24.000   1.0239   0.36543   0.36493  -0.2351  0.1097  1.0000  -1.1390   0.0000   0.4025
  25.000   1.0333   0.37738   0.37705  -0.2319  0.0986  1.0000  -1.3509   0.0000   0.3935


