XFLR5 v6.09.05 beta

 Calculated polar for: 25s1223

 1 1 Reynolds number fixed          Mach number fixed         

 xtrf =   1.000 (top)        1.000 (bottom)
 Mach =   0.000     Re =     0.045 e 6     Ncrit =   9.000

  alpha     CL        CD       CDp       Cm    Top Xtr Bot Xtr   Cpmin    Chinge    XCp    
 ------- -------- --------- --------- -------- ------- ------- -------- --------- ---------
   1.000   0.1006   0.12965   0.12588  -0.0700  0.7976  0.2724  -0.5299   0.0000   0.9473
   2.000   0.8286   0.16136   0.15660  -0.2199  0.7670  0.3355  -0.8129   0.0000   0.5077
   5.000   0.9986   0.17997   0.17459  -0.2235  0.6667  0.6915  -0.9479   0.0000   0.4581
   6.000   1.0934   0.19566   0.19025  -0.2358  0.6295  0.7465  -1.0302   0.0000   0.4472
   7.000   1.1876   0.21374   0.20833  -0.2477  0.5878  0.8038  -1.1281   0.0000   0.4375
   8.000   1.2680   0.23265   0.22750  -0.2571  0.5457  0.8763  -1.2287   0.0000   0.4290
  21.000   1.0503   0.34535   0.34410  -0.2322  0.1830  1.0000  -0.9288   0.0000   0.4066
  22.000   1.0565   0.35621   0.35515  -0.2303  0.1666  1.0000  -1.0477   0.0000   0.3999
  23.000   1.0324   0.35855   0.35776  -0.2334  0.1502  1.0000  -1.0514   0.0000   0.4037
  24.000   1.0244   0.36610   0.36547  -0.2333  0.1406  1.0000  -1.1429   0.0000   0.4013
  25.000   1.0171   0.37293   0.37248  -0.2341  0.1222  1.0000  -1.2110   0.0000   0.3993


