XFLR5 v6.09.05 beta

 Calculated polar for: 25s1223

 1 1 Reynolds number fixed          Mach number fixed         

 xtrf =   1.000 (top)        1.000 (bottom)
 Mach =   0.000     Re =     0.080 e 6     Ncrit =   9.000

  alpha     CL        CD       CDp       Cm    Top Xtr Bot Xtr   Cpmin    Chinge    XCp    
 ------- -------- --------- --------- -------- ------- ------- -------- --------- ---------
   0.000   1.4004   0.06200   0.05518  -0.2372  0.5694  0.4931  -1.6742   0.0000   0.4140
   1.000   1.5881   0.06473   0.05746  -0.2515  0.5438  0.5386  -1.8595   0.0000   0.4011
   2.000   1.6162   0.07587   0.06911  -0.2442  0.5201  0.5756  -1.9001   0.0000   0.3916
   3.000   1.7267   0.08124   0.07462  -0.2465  0.5029  0.6307  -2.0455   0.0000   0.3812
   9.000   1.4157   0.23857   0.23469  -0.2575  0.3892  0.7861  -1.5497   0.0000   0.4053
  10.000   1.4591   0.25588   0.25218  -0.2616  0.3526  0.8431  -1.6880   0.0000   0.3996
  11.000   1.4743   0.27337   0.27009  -0.2646  0.3090  0.8888  -1.7700   0.0000   0.3966


