XFLR5 v6.09.05 beta

 Calculated polar for: 25s1223

 1 1 Reynolds number fixed          Mach number fixed         

 xtrf =   1.000 (top)        1.000 (bottom)
 Mach =   0.000     Re =     0.150 e 6     Ncrit =   9.000

  alpha     CL        CD       CDp       Cm    Top Xtr Bot Xtr   Cpmin    Chinge    XCp    
 ------- -------- --------- --------- -------- ------- ------- -------- --------- ---------
   0.000   1.6058   0.06687   0.05996  -0.2755  0.4789  0.4215  -1.8811   0.0000   0.4155
   1.000   1.7582   0.06469   0.05740  -0.2809  0.4590  0.4709  -2.0572   0.0000   0.4020
   2.000   1.8268   0.06751   0.06064  -0.2746  0.4471  0.5153  -2.1632   0.0000   0.3905
   3.000   1.9056   0.06868   0.06197  -0.2693  0.4343  0.5639  -2.2953   0.0000   0.3795
   4.000   2.0067   0.06916   0.06251  -0.2675  0.4200  0.6199  -2.4813   0.0000   0.3695
   5.000   2.0260   0.07421   0.06834  -0.2552  0.4076  0.6649  -2.5950   0.0000   0.3598
   6.000   2.0912   0.07650   0.07084  -0.2493  0.3925  0.7153  -2.8539   0.0000   0.3507
   7.000   2.1218   0.08250   0.07736  -0.2408  0.3771  0.7573  -3.0952   0.0000   0.3424
   8.000   2.1610   0.08728   0.08266  -0.2336  0.3585  0.8004  -3.3661   0.0000   0.3343
  10.000   2.2556   0.09386   0.08964  -0.2212  0.3162  0.8654  -4.0050   0.0000   0.3186
  11.000   2.2049   0.10841   0.10512  -0.2114  0.2947  0.8814  -4.1111   0.0000   0.3130
  12.000   2.1822   0.12156   0.11874  -0.2066  0.2714  1.0000  -4.2783   0.0000   0.3083
  13.000   2.1549   0.13714   0.13467  -0.2055  0.2430  1.0000  -4.4192   0.0000   0.3053
  14.000   2.0816   0.16258   0.16046  -0.2110  0.2082  1.0000  -4.3943   0.0000   0.3073
  15.000   2.0700   0.17685   0.17457  -0.2132  0.1726  1.0000  -4.5479   0.0000   0.3052
  16.000   2.0517   0.19253   0.19013  -0.2160  0.1416  1.0000  -4.7002   0.0000   0.3037
  17.000   2.0221   0.21169   0.20949  -0.2207  0.1192  1.0000  -5.0043   0.0000   0.3036


