XFLR5 v6.09.05 beta

 Calculated polar for: 25s1223

 1 1 Reynolds number fixed          Mach number fixed         

 xtrf =   1.000 (top)        1.000 (bottom)
 Mach =   0.000     Re =     0.090 e 6     Ncrit =   9.000

  alpha     CL        CD       CDp       Cm    Top Xtr Bot Xtr   Cpmin    Chinge    XCp    
 ------- -------- --------- --------- -------- ------- ------- -------- --------- ---------
   0.000   1.4662   0.06071   0.05374  -0.2479  0.5491  0.4767  -1.7394   0.0000   0.4136
   1.000   1.6363   0.06488   0.05766  -0.2600  0.5255  0.5194  -1.9085   0.0000   0.4016
   2.000   1.7586   0.06705   0.05984  -0.2622  0.5046  0.5746  -2.0621   0.0000   0.3898
   3.000   1.7856   0.07714   0.07052  -0.2536  0.4888  0.6185  -2.1200   0.0000   0.3805
   4.000   1.7401   0.09093   0.08498  -0.2379  0.4687  0.6534  -2.1085   0.0000   0.3727
   6.000   1.3683   0.18214   0.17769  -0.2441  0.4281  0.6004  -1.4749   0.0000   0.4097
   7.000   1.3662   0.20451   0.20046  -0.2510  0.4277  0.6334  -1.4419   0.0000   0.4126
   8.000   1.3748   0.21958   0.21573  -0.2545  0.3955  0.6814  -1.4579   0.0000   0.4112
   9.000   1.3986   0.23661   0.23295  -0.2586  0.3652  0.7356  -1.5157   0.0000   0.4081
  10.000   1.4846   0.24077   0.23713  -0.2561  0.3002  0.8227  -1.8159   0.0000   0.3923
  11.000   1.5141   0.25705   0.25383  -0.2592  0.2686  0.8664  -1.9452   0.0000   0.3878
  12.000   1.5287   0.27471   0.27176  -0.2616  0.2397  0.9183  -2.0280   0.0000   0.3845


