XFLR5 v6.09.05 beta

 Calculated polar for: 25s1223

 1 1 Reynolds number fixed          Mach number fixed         

 xtrf =   1.000 (top)        1.000 (bottom)
 Mach =   0.000     Re =     0.235 e 6     Ncrit =   9.000

  alpha     CL        CD       CDp       Cm    Top Xtr Bot Xtr   Cpmin    Chinge    XCp    
 ------- -------- --------- --------- -------- ------- ------- -------- --------- ---------
   0.000   1.5668   0.08107   0.07476  -0.2741  0.4371  0.3778  -1.8575   0.0000   0.4183
   1.000   1.7271   0.07547   0.06882  -0.2798  0.4200  0.4306  -2.0473   0.0000   0.4035
   2.000   1.8053   0.07648   0.07015  -0.2744  0.4107  0.4793  -2.1637   0.0000   0.3914
   3.000   1.8857   0.07630   0.07009  -0.2691  0.3999  0.5253  -2.2983   0.0000   0.3801
   5.000   2.0326   0.07516   0.06944  -0.2570  0.3772  0.6061  -2.6325   0.0000   0.3597
   6.000   2.0857   0.07705   0.07161  -0.2491  0.3639  0.6389  -2.8795   0.0000   0.3503
   7.000   2.1702   0.07669   0.07140  -0.2456  0.3476  0.6797  -3.2266   0.0000   0.3418
   8.000   2.1932   0.08126   0.07645  -0.2351  0.3343  0.7120  -3.4707   0.0000   0.3331
   9.000   2.2510   0.08426   0.07950  -0.2295  0.3131  0.7446  -3.8004   0.0000   0.3252
  10.000   2.2873   0.08987   0.08573  -0.2226  0.2969  0.7771  -4.1246   0.0000   0.3177
  11.000   2.3255   0.09474   0.09086  -0.2165  0.2757  0.7991  -4.4601   0.0000   0.3105
  12.000   2.3095   0.10705   0.10350  -0.2090  0.2444  0.8201  -4.6679   0.0000   0.3045
  13.000   2.2506   0.12567   0.12232  -0.2052  0.2019  0.8303  -4.7460   0.0000   0.3014
  14.000   2.1660   0.15007   0.14687  -0.2085  0.1644  0.8351  -4.7150   0.0000   0.3024
  15.000   2.0898   0.17628   0.17331  -0.2160  0.1331  0.8415  -4.6708   0.0000   0.3055
  16.000   2.0319   0.20145   0.19858  -0.2241  0.1066  0.8522  -4.6806   0.0000   0.3084
  17.000   1.9932   0.22418   0.22156  -0.2311  0.0885  0.8707  -4.8767   0.0000   0.3100
  18.000   1.9629   0.24532   0.24291  -0.2370  0.0758  1.0000  -5.3053   0.0000   0.3106
  19.000   1.9275   0.26751   0.26532  -0.2427  0.0655  1.0000  -5.7168   0.0000   0.3116
  20.000   1.8912   0.28860   0.28681  -0.2467  0.0582  1.0000  -6.1583   0.0000   0.3118


