XFLR5 v6.09.05 beta

 Calculated polar for: 25s1223

 1 1 Reynolds number fixed          Mach number fixed         

 xtrf =   1.000 (top)        1.000 (bottom)
 Mach =   0.000     Re =     0.180 e 6     Ncrit =   9.000

  alpha     CL        CD       CDp       Cm    Top Xtr Bot Xtr   Cpmin    Chinge    XCp    
 ------- -------- --------- --------- -------- ------- ------- -------- --------- ---------
   0.000   1.6300   0.06823   0.06131  -0.2801  0.4585  0.4078  -1.9105   0.0000   0.4157
   1.000   1.7154   0.07073   0.06397  -0.2762  0.4440  0.4456  -2.0254   0.0000   0.4028
   2.000   1.8085   0.07047   0.06378  -0.2726  0.4307  0.4926  -2.1576   0.0000   0.3906
   3.000   1.9226   0.06840   0.06174  -0.2721  0.4186  0.5435  -2.3237   0.0000   0.3795
   4.000   1.9654   0.07152   0.06527  -0.2622  0.4073  0.5858  -2.4446   0.0000   0.3691
   5.000   2.0352   0.07281   0.06689  -0.2562  0.3941  0.6340  -2.6229   0.0000   0.3594
   6.000   2.1077   0.07472   0.06908  -0.2514  0.3798  0.6808  -2.8981   0.0000   0.3506
   7.000   2.1387   0.07918   0.07403  -0.2419  0.3654  0.7199  -3.1461   0.0000   0.3419
   8.000   2.2174   0.08066   0.07570  -0.2383  0.3468  0.7682  -3.4965   0.0000   0.3337
   9.000   2.2245   0.08713   0.08271  -0.2276  0.3282  0.7945  -3.7168   0.0000   0.3256
  10.000   2.2690   0.09145   0.08733  -0.2216  0.3084  0.8276  -4.0571   0.0000   0.3181
  11.000   2.2975   0.09704   0.09327  -0.2149  0.2870  0.8486  -4.3678   0.0000   0.3109
  12.000   2.2694   0.11026   0.10711  -0.2073  0.2628  0.8705  -4.5345   0.0000   0.3053
  13.000   2.2305   0.12674   0.12397  -0.2041  0.2321  0.8937  -4.6592   0.0000   0.3018
  14.000   2.1739   0.14693   0.14418  -0.2058  0.1945  1.0000  -4.7106   0.0000   0.3010
  15.000   2.0974   0.17303   0.17055  -0.2128  0.1603  1.0000  -4.6618   0.0000   0.3037
  16.000   2.0416   0.19727   0.19487  -0.2202  0.1304  1.0000  -4.6830   0.0000   0.3061
  17.000   2.0013   0.21955   0.21734  -0.2268  0.1083  1.0000  -4.8998   0.0000   0.3075
  18.000   1.9608   0.24287   0.24083  -0.2338  0.0906  1.0000  -5.2084   0.0000   0.3093
  19.000   1.9237   0.26526   0.26338  -0.2396  0.0765  1.0000  -5.6081   0.0000   0.3104
  20.000   1.8507   0.29515   0.29377  -0.2459  0.0674  1.0000  -5.7764   0.0000   0.3143


