XFLR5 v6.09.05 beta

 Calculated polar for: 5s1223

 1 1 Reynolds number fixed          Mach number fixed         

 xtrf =   1.000 (top)        1.000 (bottom)
 Mach =   0.000     Re =     0.145 e 6     Ncrit =   9.000

  alpha     CL        CD       CDp       Cm    Top Xtr Bot Xtr   Cpmin    Chinge    XCp    
 ------- -------- --------- --------- -------- ------- ------- -------- --------- ---------
   0.000   1.3759   0.02354   0.01489  -0.2889  0.5027  0.3980  -1.6445   0.0000   0.4576
   1.000   1.5178   0.02516   0.01623  -0.2951  0.4807  0.4554  -1.7946   0.0000   0.4403
   2.000   1.6399   0.02686   0.01794  -0.2971  0.4627  0.5551  -1.9334   0.0000   0.4253
   3.000   1.7562   0.02934   0.02062  -0.2981  0.4478  0.6959  -2.0721   0.0000   0.4121
   4.000   1.8398   0.03096   0.02276  -0.2925  0.4358  1.0000  -2.1982   0.0000   0.3996
   5.000   1.9535   0.03390   0.02548  -0.2938  0.4216  1.0000  -2.3795   0.0000   0.3891
   6.000   2.0330   0.03774   0.02965  -0.2886  0.4097  1.0000  -2.5514   0.0000   0.3787
   7.000   2.0921   0.04077   0.03323  -0.2791  0.3958  1.0000  -2.7556   0.0000   0.3682
   8.000   2.1722   0.04497   0.03756  -0.2745  0.3800  1.0000  -3.0817   0.0000   0.3591


