XFLR5 v6.09.05 beta

 Calculated polar for: 5s1223

 1 1 Reynolds number fixed          Mach number fixed         

 xtrf =   1.000 (top)        1.000 (bottom)
 Mach =   0.000     Re =     0.100 e 6     Ncrit =   9.000

  alpha     CL        CD       CDp       Cm    Top Xtr Bot Xtr   Cpmin    Chinge    XCp    
 ------- -------- --------- --------- -------- ------- ------- -------- --------- ---------
   0.000   1.3767   0.02633   0.01746  -0.2890  0.5508  0.4494  -1.6296   0.0000   0.4577
   1.000   1.5281   0.02842   0.01915  -0.2975  0.5232  0.5152  -1.7821   0.0000   0.4408
   2.000   1.6385   0.03068   0.02149  -0.2973  0.5033  0.6148  -1.9035   0.0000   0.4258
   3.000   1.7457   0.03382   0.02471  -0.2968  0.4858  0.7754  -2.0348   0.0000   0.4126
   4.000   1.8291   0.03685   0.02822  -0.2925  0.4717  1.0000  -2.1563   0.0000   0.4008
   5.000   1.9368   0.04144   0.03260  -0.2931  0.4556  1.0000  -2.3307   0.0000   0.3903
   6.000   1.9749   0.04728   0.03908  -0.2810  0.4429  1.0000  -2.4470   0.0000   0.3795


