XFLR5 v6.09.05 beta

 Calculated polar for: 5s1223

 1 1 Reynolds number fixed          Mach number fixed         

 xtrf =   1.000 (top)        1.000 (bottom)
 Mach =   0.000     Re =     0.275 e 6     Ncrit =   9.000

  alpha     CL        CD       CDp       Cm    Top Xtr Bot Xtr   Cpmin    Chinge    XCp    
 ------- -------- --------- --------- -------- ------- ------- -------- --------- ---------
   0.000   1.3643   0.02035   0.01245  -0.2867  0.4456  0.3310  -1.6537   0.0000   0.4576
   1.000   1.4745   0.02152   0.01348  -0.2861  0.4284  0.3751  -1.7871   0.0000   0.4397
   2.000   1.5927   0.02287   0.01481  -0.2872  0.4131  0.4511  -1.9270   0.0000   0.4242
   3.000   1.6973   0.02419   0.01645  -0.2856  0.4024  0.5829  -2.0584   0.0000   0.4104
   4.000   1.7969   0.02574   0.01820  -0.2830  0.3915  0.7094  -2.1977   0.0000   0.3978
   5.000   1.9033   0.02724   0.01993  -0.2821  0.3796  0.9894  -2.3588   0.0000   0.3867
   6.000   1.9843   0.02911   0.02196  -0.2766  0.3708  1.0000  -2.5352   0.0000   0.3759
   7.000   2.0571   0.03107   0.02415  -0.2695  0.3589  1.0000  -2.7393   0.0000   0.3655
   8.000   2.1454   0.03371   0.02690  -0.2660  0.3452  1.0000  -3.0808   0.0000   0.3564
   9.000   2.1857   0.03633   0.02990  -0.2537  0.3334  1.0000  -3.3531   0.0000   0.3463
  10.000   2.2349   0.03934   0.03304  -0.2439  0.3136  1.0000  -3.6505   0.0000   0.3371


