XFLR5 v6.09.05 beta

 Calculated polar for: 5s1223

 1 1 Reynolds number fixed          Mach number fixed         

 xtrf =   1.000 (top)        1.000 (bottom)
 Mach =   0.000     Re =     0.325 e 6     Ncrit =   9.000

  alpha     CL        CD       CDp       Cm    Top Xtr Bot Xtr   Cpmin    Chinge    XCp    
 ------- -------- --------- --------- -------- ------- ------- -------- --------- ---------
   0.000   1.3641   0.01964   0.01195  -0.2867  0.4342  0.3130  -1.6576   0.0000   0.4575
   1.000   1.4769   0.02095   0.01308  -0.2866  0.4155  0.3590  -1.7925   0.0000   0.4397
   2.000   1.5822   0.02205   0.01433  -0.2850  0.4042  0.4321  -1.9251   0.0000   0.4240
   3.000   1.6857   0.02346   0.01587  -0.2833  0.3924  0.5550  -2.0573   0.0000   0.4101
   4.000   1.8012   0.02506   0.01768  -0.2839  0.3802  0.6890  -2.2058   0.0000   0.3979
   5.000   1.8900   0.02651   0.01941  -0.2795  0.3727  0.7884  -2.3525   0.0000   0.3862
   6.000   1.9664   0.02792   0.02103  -0.2728  0.3628  1.0000  -2.5227   0.0000   0.3752
   7.000   2.0654   0.03019   0.02336  -0.2711  0.3470  1.0000  -2.7580   0.0000   0.3657
   8.000   2.1232   0.03238   0.02590  -0.2616  0.3397  1.0000  -3.0501   0.0000   0.3555
   9.000   2.1734   0.03499   0.02868  -0.2514  0.3260  1.0000  -3.3400   0.0000   0.3458
  10.000   2.2221   0.03826   0.03226  -0.2417  0.3096  1.0000  -3.6342   0.0000   0.3367
  11.000   2.2603   0.04201   0.03640  -0.2313  0.2952  1.0000  -3.9334   0.0000   0.3278
  12.000   2.2904   0.04706   0.04174  -0.2210  0.2778  1.0000  -4.2422   0.0000   0.3195


