XFLR5 v6.09.05 beta

 Calculated polar for: 5s1223

 1 1 Reynolds number fixed          Mach number fixed         

 xtrf =   1.000 (top)        1.000 (bottom)
 Mach =   0.000     Re =     0.150 e 6     Ncrit =   9.000

  alpha     CL        CD       CDp       Cm    Top Xtr Bot Xtr   Cpmin    Chinge    XCp    
 ------- -------- --------- --------- -------- ------- ------- -------- --------- ---------
   0.000   1.3770   0.02335   0.01470  -0.2891  0.4987  0.3940  -1.6467   0.0000   0.4576
   1.000   1.5124   0.02486   0.01601  -0.2939  0.4775  0.4502  -1.7921   0.0000   0.4403
   2.000   1.6431   0.02669   0.01773  -0.2977  0.4589  0.5511  -1.9382   0.0000   0.4254
   3.000   1.7522   0.02892   0.02027  -0.2972  0.4451  0.6892  -2.0707   0.0000   0.4120
   4.000   1.8380   0.03042   0.02226  -0.2920  0.4329  1.0000  -2.1994   0.0000   0.3994
   5.000   1.9625   0.03440   0.02599  -0.2959  0.4171  1.0000  -2.3889   0.0000   0.3895
   6.000   2.0309   0.03701   0.02899  -0.2879  0.4072  1.0000  -2.5514   0.0000   0.3786
   7.000   2.0968   0.03977   0.03220  -0.2797  0.3934  1.0000  -2.7671   0.0000   0.3682
   8.000   2.1672   0.04398   0.03664  -0.2732  0.3785  1.0000  -3.0762   0.0000   0.3588


