XFLR5 v6.09.05 beta

 Calculated polar for: 5s1223

 1 1 Reynolds number fixed          Mach number fixed         

 xtrf =   1.000 (top)        1.000 (bottom)
 Mach =   0.000     Re =     0.245 e 6     Ncrit =   9.000

  alpha     CL        CD       CDp       Cm    Top Xtr Bot Xtr   Cpmin    Chinge    XCp    
 ------- -------- --------- --------- -------- ------- ------- -------- --------- ---------
   0.000   1.3684   0.02095   0.01282  -0.2875  0.4521  0.3423  -1.6539   0.0000   0.4576
   1.000   1.4794   0.02198   0.01385  -0.2871  0.4370  0.3875  -1.7868   0.0000   0.4398
   2.000   1.6069   0.02351   0.01520  -0.2901  0.4181  0.4708  -1.9336   0.0000   0.4245
   3.000   1.7100   0.02487   0.01692  -0.2882  0.4092  0.6027  -2.0624   0.0000   0.4107
   4.000   1.8081   0.02643   0.01877  -0.2853  0.3986  0.7301  -2.2011   0.0000   0.3981
   5.000   1.9048   0.02786   0.02032  -0.2825  0.3862  1.0000  -2.3575   0.0000   0.3868
   6.000   2.0013   0.03017   0.02278  -0.2802  0.3763  1.0000  -2.5484   0.0000   0.3765
   7.000   2.0691   0.03223   0.02520  -0.2721  0.3646  1.0000  -2.7531   0.0000   0.3660
   8.000   2.1489   0.03456   0.02756  -0.2668  0.3509  1.0000  -3.0823   0.0000   0.3566
   9.000   2.1947   0.03761   0.03115  -0.2556  0.3385  1.0000  -3.3623   0.0000   0.3468
  10.000   2.2266   0.04039   0.03412  -0.2426  0.3217  1.0000  -3.6294   0.0000   0.3370


