XFLR5 v6.09.05 beta

 Calculated polar for: 5s1223

 1 1 Reynolds number fixed          Mach number fixed         

 xtrf =   1.000 (top)        1.000 (bottom)
 Mach =   0.000     Re =     0.285 e 6     Ncrit =   9.000

  alpha     CL        CD       CDp       Cm    Top Xtr Bot Xtr   Cpmin    Chinge    XCp    
 ------- -------- --------- --------- -------- ------- ------- -------- --------- ---------
   0.000   1.3635   0.02019   0.01233  -0.2865  0.4433  0.3263  -1.6539   0.0000   0.4576
   1.000   1.4740   0.02142   0.01338  -0.2860  0.4253  0.3709  -1.7877   0.0000   0.4397
   2.000   1.5896   0.02267   0.01471  -0.2865  0.4114  0.4473  -1.9259   0.0000   0.4242
   3.000   1.6944   0.02400   0.01631  -0.2850  0.4003  0.5769  -2.0579   0.0000   0.4103
   4.000   1.7966   0.02559   0.01806  -0.2829  0.3888  0.7041  -2.1988   0.0000   0.3978
   5.000   1.9031   0.02718   0.01989  -0.2821  0.3783  0.8433  -2.3601   0.0000   0.3866
   6.000   1.9803   0.02882   0.02173  -0.2757  0.3691  1.0000  -2.5324   0.0000   0.3757
   7.000   2.0539   0.03080   0.02390  -0.2688  0.3571  1.0000  -2.7356   0.0000   0.3653
   8.000   2.1395   0.03338   0.02665  -0.2648  0.3442  1.0000  -3.0724   0.0000   0.3561
   9.000   2.1832   0.03598   0.02958  -0.2532  0.3318  1.0000  -3.3506   0.0000   0.3462
  10.000   2.2308   0.03909   0.03287  -0.2432  0.3129  1.0000  -3.6446   0.0000   0.3369
  11.000   2.2568   0.04307   0.03738  -0.2307  0.3003  1.0000  -3.9186   0.0000   0.3278


