XFLR5 v6.09.05 beta

 Calculated polar for: -10s1223

 1 1 Reynolds number fixed          Mach number fixed         

 xtrf =   1.000 (top)        1.000 (bottom)
 Mach =   0.000     Re =     0.060 e 6     Ncrit =   9.000

  alpha     CL        CD       CDp       Cm    Top Xtr Bot Xtr   Cpmin    Chinge    XCp    
 ------- -------- --------- --------- -------- ------- ------- -------- --------- ---------
   0.000   0.3564   0.05975   0.05388  -0.1201  0.6504  0.2519  -0.9073   0.0000   0.5862
   1.000   0.6138   0.03802   0.02984  -0.1797  0.6229  0.1158  -1.0230   0.0000   0.5397
   2.000   0.7565   0.03440   0.02488  -0.1857  0.5992  0.1256  -1.1332   0.0000   0.4910
   3.000   0.8510   0.03687   0.02877  -0.1835  0.5767  0.5515  -1.2036   0.0000   0.4601
   4.000   0.9122   0.03945   0.03188  -0.1736  0.5632  0.7532  -1.2666   0.0000   0.4334
   5.000   0.9323   0.05079   0.04311  -0.1716  0.5445  1.0000  -1.2484   0.0000   0.4263
   6.000   0.8616   0.07237   0.06493  -0.1719  0.5458  1.0000  -1.1157   0.0000   0.4413
   7.000   0.9281   0.08891   0.08109  -0.1770  0.5631  1.0000  -1.1570   0.0000   0.4314
   8.000   0.8426   0.10801   0.10053  -0.1806  0.6058  1.0000  -1.0030   0.0000   0.4544
   9.000   0.8863   0.11866   0.11100  -0.1796  0.5703  1.0000  -1.0429   0.0000   0.4412
  10.000   0.9271   0.12968   0.12189  -0.1789  0.5343  1.0000  -1.0921   0.0000   0.4301
  11.000   0.9615   0.14092   0.13310  -0.1786  0.4986  1.0000  -1.1375   0.0000   0.4213
  12.000   0.9833   0.15261   0.14486  -0.1795  0.4668  1.0000  -1.1610   0.0000   0.4166
  13.000   1.0142   0.16469   0.15704  -0.1812  0.4346  1.0000  -1.2088   0.0000   0.4111
  14.000   1.0495   0.17844   0.17101  -0.1840  0.4097  1.0000  -1.2761   0.0000   0.4061
  15.000   1.1588   0.20465   0.19738  -0.1848  0.3836  1.0000  -1.5231   0.0000   0.3881
  17.000   1.1549   0.21714   0.21025  -0.1943  0.3229  1.0000  -1.4946   0.0000   0.3933
  18.000   1.1638   0.23148   0.22501  -0.2017  0.2990  1.0000  -1.4722   0.0000   0.3966
  19.000   1.1878   0.24895   0.24270  -0.2072  0.2786  1.0000  -1.4939   0.0000   0.3957
  20.000   1.2670   0.28074   0.27484  -0.2058  0.2573  1.0000  -1.6754   0.0000   0.3811
  21.000   1.2254   0.28441   0.27861  -0.2192  0.2396  1.0000  -1.4874   0.0000   0.3959
  22.000   1.2594   0.31012   0.30457  -0.2210  0.2276  1.0000  -1.5744   0.0000   0.3900
  23.000   1.2539   0.32374   0.31861  -0.2280  0.2072  1.0000  -1.5388   0.0000   0.3941
  24.000   1.2378   0.34530   0.34044  -0.2315  0.1956  1.0000  -1.4927   0.0000   0.3972


