XFLR5 v6.09.05 beta

 Calculated polar for: -10s1223

 1 1 Reynolds number fixed          Mach number fixed         

 xtrf =   1.000 (top)        1.000 (bottom)
 Mach =   0.000     Re =     0.275 e 6     Ncrit =   9.000

  alpha     CL        CD       CDp       Cm    Top Xtr Bot Xtr   Cpmin    Chinge    XCp    
 ------- -------- --------- --------- -------- ------- ------- -------- --------- ---------
   0.000   0.5020   0.02747   0.02127  -0.1673  0.4803  0.0494  -1.2230   0.0000   0.5799
   1.000   0.6895   0.01777   0.00943  -0.1841  0.4535  0.0295  -1.2815   0.0000   0.5125
   2.000   0.8223   0.01578   0.00725  -0.1882  0.4380  0.0441  -1.2800   0.0000   0.4728
   3.000   0.9636   0.01514   0.00689  -0.1939  0.4206  0.3061  -1.4186   0.0000   0.4439
   4.000   1.0829   0.01557   0.00755  -0.1950  0.4104  0.4149  -1.5477   0.0000   0.4213
   6.000   1.2552   0.01626   0.00910  -0.1815  0.3902  0.9692  -1.7694   0.0000   0.3828
   7.000   1.3677   0.01789   0.01073  -0.1819  0.3804  1.0000  -1.9160   0.0000   0.3696
   8.000   1.4796   0.01902   0.01202  -0.1822  0.3710  1.0000  -2.0897   0.0000   0.3581
   9.000   1.5901   0.02010   0.01307  -0.1823  0.3595  1.0000  -2.2907   0.0000   0.3478
  10.000   1.6953   0.02217   0.01540  -0.1820  0.3469  1.0000  -2.5289   0.0000   0.3387
  11.000   1.7973   0.02301   0.01650  -0.1809  0.3344  1.0000  -2.8806   0.0000   0.3299
  12.000   1.8968   0.02453   0.01802  -0.1797  0.3170  1.0000  -3.2441   0.0000   0.3219
  13.000   1.9856   0.02464   0.01860  -0.1761  0.3004  1.0000  -3.6050   0.0000   0.3136
  14.000   2.0645   0.02606   0.02025  -0.1714  0.2819  1.0000  -3.9985   0.0000   0.3057
  15.000   2.1139   0.02795   0.02241  -0.1617  0.2571  1.0000  -4.3442   0.0000   0.2969
  16.000   2.1312   0.03222   0.02701  -0.1493  0.2240  1.0000  -4.6196   0.0000   0.2881
  17.000   2.0815   0.04599   0.04101  -0.1416  0.1856  1.0000  -4.7087   0.0000   0.2836
  18.000   1.9849   0.07022   0.06561  -0.1427  0.1605  1.0000  -4.6351   0.0000   0.2849
  19.000   1.8890   0.09690   0.09262  -0.1479  0.1387  1.0000  -4.5288   0.0000   0.2887
  20.000   1.8220   0.12135   0.11726  -0.1559  0.1164  1.0000  -4.4751   0.0000   0.2934
  21.000   1.7817   0.14178   0.13783  -0.1645  0.0968  1.0000  -4.5142   0.0000   0.2976
  22.000   1.7646   0.15769   0.15393  -0.1729  0.0830  1.0000  -4.6545   0.0000   0.3005
  23.000   1.7530   0.17372   0.17005  -0.1816  0.0718  1.0000  -5.0038   0.0000   0.3032
  24.000   1.7510   0.18917   0.18597  -0.1899  0.0655  1.0000  -5.5584   0.0000   0.3051
  25.000   1.7397   0.20746   0.20443  -0.1999  0.0576  1.0000  -6.0383   0.0000   0.3084


