XFLR5 v6.09.05 beta

 Calculated polar for: -10s1223

 1 1 Reynolds number fixed          Mach number fixed         

 xtrf =   1.000 (top)        1.000 (bottom)
 Mach =   0.000     Re =     0.125 e 6     Ncrit =   9.000

  alpha     CL        CD       CDp       Cm    Top Xtr Bot Xtr   Cpmin    Chinge    XCp    
 ------- -------- --------- --------- -------- ------- ------- -------- --------- ---------
   0.000   0.4337   0.04365   0.03760  -0.1441  0.5522  0.1209  -0.9863   0.0000   0.5792
   1.000   0.6770   0.02399   0.01500  -0.1838  0.5257  0.0613  -1.1219   0.0000   0.5174
   2.000   0.8099   0.02127   0.01182  -0.1873  0.5029  0.0715  -1.2390   0.0000   0.4757
   3.000   0.9394   0.02203   0.01334  -0.1904  0.4859  0.4287  -1.3611   0.0000   0.4459
   4.000   1.0509   0.02278   0.01428  -0.1900  0.4703  0.5418  -1.4718   0.0000   0.4226
   5.000   1.1111   0.02345   0.01544  -0.1773  0.4574  1.0000  -1.5570   0.0000   0.3999
   6.000   1.2146   0.02667   0.01867  -0.1767  0.4461  1.0000  -1.6724   0.0000   0.3844
   7.000   1.3165   0.02941   0.02144  -0.1758  0.4321  1.0000  -1.8073   0.0000   0.3709
   8.000   1.4174   0.03368   0.02570  -0.1751  0.4193  1.0000  -1.9673   0.0000   0.3593
   9.000   1.4907   0.03828   0.03088  -0.1711  0.4051  1.0000  -2.1047   0.0000   0.3489
  10.000   1.5879   0.04058   0.03322  -0.1694  0.3904  1.0000  -2.3187   0.0000   0.3390
  11.000   1.6204   0.04880   0.04227  -0.1617  0.3726  1.0000  -2.4808   0.0000   0.3304
  12.000   1.7133   0.04993   0.04353  -0.1590  0.3567  1.0000  -2.8155   0.0000   0.3212
  14.000   1.8823   0.05182   0.04588  -0.1513  0.3183  1.0000  -3.4989   0.0000   0.3042
  15.000   1.3615   0.13274   0.12761  -0.1593  0.2604  1.0000  -2.3074   0.0000   0.3410
  16.000   1.3561   0.14867   0.14375  -0.1646  0.2334  1.0000  -2.3445   0.0000   0.3434
  22.000   1.3320   0.27793   0.27430  -0.2182  0.1267  1.0000  -2.0327   0.0000   0.3754
  23.000   1.2971   0.31547   0.31206  -0.2321  0.1360  1.0000  -1.7336   0.0000   0.3897


