XFLR5 v6.09.05 beta

 Calculated polar for: -10s1223

 1 1 Reynolds number fixed          Mach number fixed         

 xtrf =   1.000 (top)        1.000 (bottom)
 Mach =   0.000     Re =     0.190 e 6     Ncrit =   9.000

  alpha     CL        CD       CDp       Cm    Top Xtr Bot Xtr   Cpmin    Chinge    XCp    
 ------- -------- --------- --------- -------- ------- ------- -------- --------- ---------
   0.000   0.4640   0.03550   0.02952  -0.1552  0.5103  0.0722  -1.0063   0.0000   0.5812
   1.000   0.6862   0.01962   0.01092  -0.1843  0.4851  0.0400  -1.2247   0.0000   0.5142
   2.000   0.8184   0.01778   0.00872  -0.1879  0.4646  0.0545  -1.2654   0.0000   0.4737
   3.000   0.9547   0.01774   0.00917  -0.1924  0.4490  0.3504  -1.3967   0.0000   0.4444
   4.000   1.0725   0.01822   0.00989  -0.1932  0.4350  0.4664  -1.5211   0.0000   0.4216
   5.000   1.1375   0.01840   0.01086  -0.1813  0.4234  0.9465  -1.6087   0.0000   0.3993
   6.000   1.2424   0.02024   0.01264  -0.1798  0.4137  1.0000  -1.7344   0.0000   0.3832
   7.000   1.3531   0.02181   0.01424  -0.1799  0.4022  1.0000  -1.8812   0.0000   0.3698
   8.000   1.4642   0.02351   0.01593  -0.1802  0.3911  1.0000  -2.0557   0.0000   0.3582
   9.000   1.5646   0.02651   0.01915  -0.1792  0.3791  1.0000  -2.2378   0.0000   0.3480
  10.000   1.6648   0.02801   0.02088  -0.1778  0.3653  1.0000  -2.4654   0.0000   0.3384
  11.000   1.7644   0.03091   0.02397  -0.1769  0.3500  1.0000  -2.7964   0.0000   0.3299
  12.000   1.8518   0.03177   0.02529  -0.1734  0.3356  1.0000  -3.1323   0.0000   0.3212
  13.000   1.9496   0.03242   0.02602  -0.1716  0.3164  1.0000  -3.5069   0.0000   0.3133
  14.000   2.0191   0.03271   0.02678  -0.1650  0.2967  1.0000  -3.8686   0.0000   0.3047
  15.000   2.0617   0.03479   0.02926  -0.1548  0.2766  1.0000  -4.1925   0.0000   0.2958
  16.000   2.0754   0.03850   0.03335  -0.1425  0.2526  1.0000  -4.4546   0.0000   0.2870
  17.000   2.0384   0.05022   0.04548  -0.1358  0.2242  1.0000  -4.5696   0.0000   0.2824
  18.000   1.9526   0.07229   0.06792  -0.1372  0.1952  1.0000  -4.5205   0.0000   0.2835
  19.000   1.8627   0.09779   0.09367  -0.1429  0.1676  1.0000  -4.4230   0.0000   0.2873
  20.000   1.8118   0.11905   0.11510  -0.1497  0.1427  1.0000  -4.4123   0.0000   0.2906
  21.000   1.7836   0.13670   0.13291  -0.1569  0.1225  1.0000  -4.4836   0.0000   0.2933
  22.000   1.7666   0.15219   0.14851  -0.1651  0.1051  1.0000  -4.6328   0.0000   0.2960
  23.000   1.7576   0.16756   0.16389  -0.1737  0.0885  1.0000  -5.0224   0.0000   0.2984
  24.000   1.7067   0.19474   0.19182  -0.1889  0.0810  1.0000  -5.0621   0.0000   0.3079
  25.000   1.7003   0.21227   0.20945  -0.1984  0.0700  1.0000  -5.5644   0.0000   0.3108


