XFLR5 v6.09.05 beta

 Calculated polar for: -10s1223

 1 1 Reynolds number fixed          Mach number fixed         

 xtrf =   1.000 (top)        1.000 (bottom)
 Mach =   0.000     Re =     0.040 e 6     Ncrit =   9.000

  alpha     CL        CD       CDp       Cm    Top Xtr Bot Xtr   Cpmin    Chinge    XCp    
 ------- -------- --------- --------- -------- ------- ------- -------- --------- ---------
   0.000   0.2617   0.06944   0.06363  -0.0904  0.7436  0.4279  -0.8367   0.0000   0.5965
   1.000   0.1875   0.07284   0.06757  -0.0698  0.7139  0.4766  -0.7769   0.0000   0.6231
   3.000   0.6869   0.05628   0.04695  -0.1817  0.6644  0.1993  -0.9852   0.0000   0.5103
   4.000   0.6939   0.06605   0.05844  -0.1788  0.6658  0.6118  -0.9553   0.0000   0.5027
   7.000   0.6689   0.10045   0.09237  -0.1777  0.7778  1.0000  -0.8168   0.0000   0.5077
   8.000   0.7783   0.11625   0.10728  -0.1846  0.7385  1.0000  -0.9106   0.0000   0.4777
   9.000   0.7852   0.12232   0.11315  -0.1788  0.6880  1.0000  -0.9097   0.0000   0.4668
  10.000   0.8473   0.13425   0.12485  -0.1801  0.6447  1.0000  -0.9732   0.0000   0.4501
  11.000   0.9064   0.14741   0.13789  -0.1816  0.6056  1.0000  -1.0397   0.0000   0.4363
  12.000   0.9746   0.16366   0.15411  -0.1838  0.5661  1.0000  -1.1261   0.0000   0.4230
  14.000   1.0469   0.18947   0.18030  -0.1860  0.4930  1.0000  -1.2549   0.0000   0.4088
  15.000   1.0755   0.20142   0.19242  -0.1879  0.4572  1.0000  -1.3231   0.0000   0.4041
  16.000   1.0852   0.20857   0.19976  -0.1917  0.4258  1.0000  -1.3434   0.0000   0.4042
  17.000   1.1099   0.22095   0.21237  -0.1961  0.3937  1.0000  -1.3736   0.0000   0.4025
  18.000   1.1321   0.23555   0.22720  -0.2016  0.3669  1.0000  -1.3838   0.0000   0.4019
  19.000   1.1683   0.25713   0.24933  -0.2058  0.3467  1.0000  -1.4402   0.0000   0.3980
  20.000   1.2247   0.28818   0.28072  -0.2082  0.3174  1.0000  -1.5358   0.0000   0.3896
  21.000   1.2023   0.28756   0.28029  -0.2171  0.2959  1.0000  -1.4259   0.0000   0.3982
  22.000   1.2267   0.31288   0.30591  -0.2211  0.2843  1.0000  -1.4660   0.0000   0.3956
  23.000   1.2448   0.33101   0.32458  -0.2244  0.2593  1.0000  -1.5094   0.0000   0.3932
  24.000   1.2156   0.34649   0.34037  -0.2292  0.2459  1.0000  -1.4223   0.0000   0.3994


