XFLR5 v6.09.05 beta

 Calculated polar for: -10s1223

 1 1 Reynolds number fixed          Mach number fixed         

 xtrf =   1.000 (top)        1.000 (bottom)
 Mach =   0.000     Re =     0.175 e 6     Ncrit =   9.000

  alpha     CL        CD       CDp       Cm    Top Xtr Bot Xtr   Cpmin    Chinge    XCp    
 ------- -------- --------- --------- -------- ------- ------- -------- --------- ---------
   0.000   0.4805   0.03512   0.02880  -0.1611  0.5176  0.0894  -1.0102   0.0000   0.5818
   1.000   0.6854   0.02059   0.01170  -0.1842  0.4905  0.0423  -1.2064   0.0000   0.5144
   2.000   0.8168   0.01845   0.00935  -0.1877  0.4716  0.0576  -1.2603   0.0000   0.4740
   3.000   0.9530   0.01871   0.00995  -0.1923  0.4538  0.3602  -1.3914   0.0000   0.4447
   4.000   1.0691   0.01910   0.01074  -0.1927  0.4415  0.4796  -1.5125   0.0000   0.4217
   5.000   1.1253   0.01884   0.01134  -0.1787  0.4301  1.0000  -1.5934   0.0000   0.3988
   6.000   1.2390   0.02159   0.01381  -0.1796  0.4179  1.0000  -1.7253   0.0000   0.3834
   7.000   1.3479   0.02321   0.01554  -0.1793  0.4079  1.0000  -1.8696   0.0000   0.3700
   8.000   1.4555   0.02509   0.01754  -0.1790  0.3961  1.0000  -2.0392   0.0000   0.3583
   9.000   1.5574   0.02849   0.02097  -0.1785  0.3828  1.0000  -2.2233   0.0000   0.3482
  10.000   1.6524   0.03027   0.02312  -0.1763  0.3700  1.0000  -2.4404   0.0000   0.3384
  11.000   1.7568   0.03146   0.02450  -0.1756  0.3561  1.0000  -2.7783   0.0000   0.3297
  12.000   1.8362   0.03435   0.02786  -0.1715  0.3398  1.0000  -3.0944   0.0000   0.3211
  13.000   1.9382   0.03403   0.02761  -0.1700  0.3211  1.0000  -3.4779   0.0000   0.3131
  14.000   1.9993   0.03532   0.02943  -0.1625  0.3003  1.0000  -3.8145   0.0000   0.3044
  15.000   2.0466   0.03695   0.03135  -0.1531  0.2805  1.0000  -4.1490   0.0000   0.2956
  16.000   2.0644   0.04013   0.03484  -0.1413  0.2564  1.0000  -4.4207   0.0000   0.2868
  17.000   2.0278   0.05133   0.04643  -0.1343  0.2289  1.0000  -4.5368   0.0000   0.2821
  18.000   1.9424   0.07303   0.06854  -0.1357  0.2004  1.0000  -4.4874   0.0000   0.2831
  19.000   1.8541   0.09831   0.09412  -0.1416  0.1724  1.0000  -4.3915   0.0000   0.2870
  20.000   1.8030   0.11959   0.11558  -0.1487  0.1468  1.0000  -4.3762   0.0000   0.2905
  21.000   1.7799   0.13609   0.13223  -0.1553  0.1264  1.0000  -4.4623   0.0000   0.2926
  22.000   1.7736   0.14942   0.14565  -0.1619  0.1089  1.0000  -4.6732   0.0000   0.2938


