XFLR5 v6.09.05 beta

 Calculated polar for: -10s1223

 1 1 Reynolds number fixed          Mach number fixed         

 xtrf =   1.000 (top)        1.000 (bottom)
 Mach =   0.000     Re =     0.280 e 6     Ncrit =   9.000

  alpha     CL        CD       CDp       Cm    Top Xtr Bot Xtr   Cpmin    Chinge    XCp    
 ------- -------- --------- --------- -------- ------- ------- -------- --------- ---------
   1.000   0.6880   0.01789   0.00963  -0.1837  0.4528  0.0290  -1.2714   0.0000   0.5124
   2.000   0.8228   0.01564   0.00714  -0.1883  0.4368  0.0438  -1.2809   0.0000   0.4728
   3.000   0.9646   0.01516   0.00693  -0.1942  0.4187  0.3043  -1.4192   0.0000   0.4440
   4.000   1.0832   0.01543   0.00744  -0.1950  0.4094  0.4122  -1.5488   0.0000   0.4212
   5.000   1.1875   0.01559   0.00852  -0.1923  0.3988  0.8736  -1.6688   0.0000   0.4016
   6.000   1.2583   0.01628   0.00913  -0.1822  0.3886  0.9631  -1.7724   0.0000   0.3830
   7.000   1.3681   0.01767   0.01056  -0.1819  0.3797  1.0000  -1.9173   0.0000   0.3696
   8.000   1.4802   0.01880   0.01182  -0.1822  0.3701  1.0000  -2.0912   0.0000   0.3581
   9.000   1.5908   0.01990   0.01287  -0.1824  0.3586  1.0000  -2.2925   0.0000   0.3478
  10.000   1.6961   0.02189   0.01516  -0.1821  0.3463  1.0000  -2.5309   0.0000   0.3387
  11.000   1.7986   0.02272   0.01622  -0.1810  0.3336  1.0000  -2.8840   0.0000   0.3299
  12.000   1.8978   0.02420   0.01772  -0.1798  0.3166  1.0000  -3.2469   0.0000   0.3219
  13.000   1.9871   0.02437   0.01833  -0.1763  0.2997  1.0000  -3.6090   0.0000   0.3137
  14.000   2.0662   0.02580   0.02002  -0.1716  0.2812  1.0000  -4.0032   0.0000   0.3057
  15.000   2.1162   0.02771   0.02219  -0.1620  0.2565  1.0000  -4.3506   0.0000   0.2970
  16.000   2.1336   0.03200   0.02679  -0.1497  0.2214  1.0000  -4.6266   0.0000   0.2882
  17.000   2.0797   0.04625   0.04123  -0.1419  0.1831  1.0000  -4.7049   0.0000   0.2838
  18.000   1.9824   0.07068   0.06604  -0.1430  0.1586  1.0000  -4.6287   0.0000   0.2851
  19.000   1.8871   0.09737   0.09307  -0.1483  0.1370  1.0000  -4.5238   0.0000   0.2890
  20.000   1.8207   0.12174   0.11763  -0.1562  0.1149  1.0000  -4.4721   0.0000   0.2937
  21.000   1.7808   0.14214   0.13816  -0.1648  0.0955  1.0000  -4.5116   0.0000   0.2978
  22.000   1.7657   0.15767   0.15392  -0.1730  0.0823  1.0000  -4.6603   0.0000   0.3005
  23.000   1.7551   0.17341   0.16971  -0.1815  0.0708  1.0000  -5.0237   0.0000   0.3030
  24.000   1.7512   0.18935   0.18615  -0.1902  0.0650  1.0000  -5.5634   0.0000   0.3052
  25.000   1.7413   0.20724   0.20417  -0.1999  0.0568  1.0000  -6.0571   0.0000   0.3083


