XFLR5 v6.09.05 beta

 Calculated polar for: -10s1223

 1 1 Reynolds number fixed          Mach number fixed         

 xtrf =   1.000 (top)        1.000 (bottom)
 Mach =   0.000     Re =     0.225 e 6     Ncrit =   9.000

  alpha     CL        CD       CDp       Cm    Top Xtr Bot Xtr   Cpmin    Chinge    XCp    
 ------- -------- --------- --------- -------- ------- ------- -------- --------- ---------
   0.000   0.4780   0.03272   0.02663  -0.1593  0.4942  0.0594  -1.0425   0.0000   0.5799
   1.000   0.6894   0.01799   0.00948  -0.1846  0.4715  0.0351  -1.2724   0.0000   0.5134
   2.000   0.8219   0.01695   0.00805  -0.1884  0.4510  0.0484  -1.2727   0.0000   0.4733
   3.000   0.9584   0.01618   0.00784  -0.1929  0.4368  0.3303  -1.4076   0.0000   0.4440
   4.000   1.0782   0.01715   0.00881  -0.1942  0.4210  0.4414  -1.5353   0.0000   0.4215
   5.000   1.1631   0.01740   0.01011  -0.1869  0.4124  0.9101  -1.6365   0.0000   0.4006
   6.000   1.2477   0.01805   0.01074  -0.1803  0.4028  1.0000  -1.7507   0.0000   0.3829
   7.000   1.3623   0.01940   0.01191  -0.1810  0.3917  1.0000  -1.9033   0.0000   0.3696
   8.000   1.4715   0.02189   0.01455  -0.1813  0.3809  1.0000  -2.0709   0.0000   0.3583
   9.000   1.5776   0.02323   0.01609  -0.1807  0.3697  1.0000  -2.2641   0.0000   0.3479
  10.000   1.6854   0.02435   0.01731  -0.1805  0.3565  1.0000  -2.5076   0.0000   0.3385
  11.000   1.7812   0.02676   0.02007  -0.1788  0.3437  1.0000  -2.8390   0.0000   0.3299
  12.000   1.8793   0.02728   0.02076  -0.1770  0.3280  1.0000  -3.1997   0.0000   0.3215
  13.000   1.9661   0.02829   0.02211  -0.1734  0.3090  1.0000  -3.5539   0.0000   0.3133
  14.000   2.0467   0.02903   0.02298  -0.1688  0.2892  1.0000  -3.9459   0.0000   0.3053
  15.000   2.0913   0.03094   0.02544  -0.1585  0.2682  1.0000  -4.2771   0.0000   0.2963
  16.000   2.1067   0.03497   0.02988  -0.1460  0.2414  1.0000  -4.5450   0.0000   0.2875
  17.000   2.0693   0.04688   0.04210  -0.1385  0.2103  1.0000  -4.6635   0.0000   0.2826
  18.000   1.9793   0.06958   0.06507  -0.1394  0.1818  1.0000  -4.6081   0.0000   0.2835
  19.000   1.8857   0.09547   0.09120  -0.1445  0.1562  1.0000  -4.5063   0.0000   0.2871
  20.000   1.8298   0.11749   0.11328  -0.1512  0.1304  1.0000  -4.4917   0.0000   0.2905
  21.000   1.7877   0.13806   0.13402  -0.1601  0.1098  1.0000  -4.5226   0.0000   0.2948
  22.000   1.7597   0.15618   0.15239  -0.1700  0.0937  1.0000  -4.6217   0.0000   0.2992
  23.000   1.7443   0.17332   0.16982  -0.1795  0.0808  1.0000  -4.9344   0.0000   0.3026
  24.000   1.7466   0.18728   0.18389  -0.1870  0.0705  1.0000  -5.4866   0.0000   0.3037
  25.000   1.7203   0.20977   0.20697  -0.1991  0.0649  1.0000  -5.8012   0.0000   0.3096


