XFLR5 v6.09.05 beta

 Calculated polar for: -10s1223

 1 1 Reynolds number fixed          Mach number fixed         

 xtrf =   1.000 (top)        1.000 (bottom)
 Mach =   0.000     Re =     0.145 e 6     Ncrit =   9.000

  alpha     CL        CD       CDp       Cm    Top Xtr Bot Xtr   Cpmin    Chinge    XCp    
 ------- -------- --------- --------- -------- ------- ------- -------- --------- ---------
   0.000   0.4412   0.04115   0.03510  -0.1467  0.5361  0.0994  -0.9940   0.0000   0.5793
   1.000   0.6826   0.02158   0.01260  -0.1842  0.5106  0.0492  -1.1907   0.0000   0.5157
   2.000   0.8127   0.02046   0.01103  -0.1873  0.4881  0.0639  -1.2490   0.0000   0.4748
   3.000   0.9452   0.02012   0.01146  -0.1910  0.4715  0.3975  -1.3753   0.0000   0.4451
   4.000   1.0612   0.02132   0.01270  -0.1916  0.4556  0.5132  -1.4941   0.0000   0.4221
   5.000   1.1168   0.02152   0.01384  -0.1779  0.4454  1.0000  -1.5711   0.0000   0.3994
   6.000   1.2277   0.02359   0.01573  -0.1780  0.4331  1.0000  -1.6993   0.0000   0.3837
   7.000   1.3368   0.02661   0.01852  -0.1782  0.4200  1.0000  -1.8451   0.0000   0.3704
   8.000   1.4330   0.02966   0.02201  -0.1765  0.4092  1.0000  -1.9966   0.0000   0.3588
   9.000   1.5309   0.03212   0.02464  -0.1750  0.3952  1.0000  -2.1751   0.0000   0.3481
  10.000   1.6238   0.03601   0.02863  -0.1733  0.3813  1.0000  -2.3840   0.0000   0.3387
  11.000   1.7000   0.03911   0.03242  -0.1690  0.3652  1.0000  -2.6510   0.0000   0.3295
  12.000   1.7994   0.04124   0.03454  -0.1678  0.3492  1.0000  -3.0045   0.0000   0.3212
  13.000   1.8520   0.04372   0.03763  -0.1600  0.3305  1.0000  -3.2779   0.0000   0.3123
  14.000   1.9334   0.04380   0.03800  -0.1554  0.3107  1.0000  -3.6384   0.0000   0.3039
  15.000   2.0084   0.04254   0.03678  -0.1491  0.2887  1.0000  -4.0384   0.0000   0.2953
  16.000   1.9439   0.05268   0.04775  -0.1339  0.2686  1.0000  -4.0925   0.0000   0.2876
  18.000   1.6465   0.11940   0.11535  -0.1497  0.2080  1.0000  -3.5514   0.0000   0.3053
  19.000   1.7013   0.12294   0.11900  -0.1496  0.1842  1.0000  -3.8687   0.0000   0.2994
  20.000   1.7361   0.12961   0.12572  -0.1511  0.1578  1.0000  -4.1198   0.0000   0.2956
  21.000   1.6598   0.15695   0.15343  -0.1654  0.1360  1.0000  -3.9447   0.0000   0.3061
  22.000   1.4212   0.24045   0.23712  -0.2056  0.1094  1.0000  -2.7143   0.0000   0.3531
  23.000   1.3502   0.29448   0.29131  -0.2250  0.1057  1.0000  -2.1529   0.0000   0.3754


