XFLR5 v6.09.05 beta

 Calculated polar for: -10s1223

 1 1 Reynolds number fixed          Mach number fixed         

 xtrf =   1.000 (top)        1.000 (bottom)
 Mach =   0.000     Re =     0.230 e 6     Ncrit =   9.000

  alpha     CL        CD       CDp       Cm    Top Xtr Bot Xtr   Cpmin    Chinge    XCp    
 ------- -------- --------- --------- -------- ------- ------- -------- --------- ---------
   1.000   0.6898   0.01781   0.00930  -0.1847  0.4697  0.0345  -1.2800   0.0000   0.5133
   2.000   0.8217   0.01682   0.00797  -0.1883  0.4497  0.0477  -1.2734   0.0000   0.4732
   3.000   0.9587   0.01600   0.00768  -0.1930  0.4352  0.3273  -1.4090   0.0000   0.4440
   4.000   1.0793   0.01722   0.00891  -0.1945  0.4186  0.4388  -1.5359   0.0000   0.4215
   5.000   1.1655   0.01720   0.00994  -0.1875  0.4110  0.9058  -1.6397   0.0000   0.4007
   6.000   1.2483   0.01779   0.01050  -0.1804  0.4014  1.0000  -1.7528   0.0000   0.3828
   7.000   1.3632   0.01922   0.01174  -0.1811  0.3902  1.0000  -1.9053   0.0000   0.3696
   8.000   1.4726   0.02153   0.01423  -0.1814  0.3799  1.0000  -2.0732   0.0000   0.3583
   9.000   1.5792   0.02284   0.01572  -0.1809  0.3685  1.0000  -2.2674   0.0000   0.3479
  10.000   1.6871   0.02410   0.01705  -0.1808  0.3552  1.0000  -2.5111   0.0000   0.3385
  11.000   1.7830   0.02631   0.01965  -0.1790  0.3427  1.0000  -2.8438   0.0000   0.3299
  12.000   1.8821   0.02681   0.02028  -0.1773  0.3271  1.0000  -3.2066   0.0000   0.3215
  13.000   1.9684   0.02783   0.02167  -0.1737  0.3079  1.0000  -3.5600   0.0000   0.3134
  14.000   2.0495   0.02877   0.02270  -0.1692  0.2878  1.0000  -3.9536   0.0000   0.3054
  15.000   2.0947   0.03052   0.02501  -0.1590  0.2671  1.0000  -4.2868   0.0000   0.2964
  16.000   2.1102   0.03458   0.02947  -0.1465  0.2398  1.0000  -4.5553   0.0000   0.2876
  17.000   2.0711   0.04669   0.04188  -0.1388  0.2082  1.0000  -4.6700   0.0000   0.2827
  18.000   1.9800   0.06957   0.06502  -0.1397  0.1796  1.0000  -4.6116   0.0000   0.2836
  19.000   1.8878   0.09523   0.09091  -0.1446  0.1538  1.0000  -4.5145   0.0000   0.2871
  20.000   1.8296   0.11778   0.11358  -0.1517  0.1289  1.0000  -4.4921   0.0000   0.2908
  21.000   1.7888   0.13806   0.13400  -0.1603  0.1078  1.0000  -4.5291   0.0000   0.2949
  22.000   1.7597   0.15639   0.15254  -0.1704  0.0918  1.0000  -4.6244   0.0000   0.2994
  23.000   1.7452   0.17345   0.16994  -0.1798  0.0798  1.0000  -4.9407   0.0000   0.3027
  24.000   1.7466   0.18763   0.18428  -0.1874  0.0701  1.0000  -5.4902   0.0000   0.3039
  25.000   1.7232   0.20937   0.20656  -0.1992  0.0642  1.0000  -5.8346   0.0000   0.3093


