XFLR5 v6.09.05 beta

 Calculated polar for: -10s1223

 1 1 Reynolds number fixed          Mach number fixed         

 xtrf =   1.000 (top)        1.000 (bottom)
 Mach =   0.000     Re =     0.250 e 6     Ncrit =   9.000

  alpha     CL        CD       CDp       Cm    Top Xtr Bot Xtr   Cpmin    Chinge    XCp    
 ------- -------- --------- --------- -------- ------- ------- -------- --------- ---------
   0.000   0.4852   0.03045   0.02443  -0.1621  0.4866  0.0524  -1.1092   0.0000   0.5807
   1.000   0.6915   0.01729   0.00878  -0.1848  0.4626  0.0323  -1.3064   0.0000   0.5128
   2.000   0.8202   0.01651   0.00783  -0.1878  0.4444  0.0455  -1.2755   0.0000   0.4730
   3.000   0.9599   0.01547   0.00714  -0.1931  0.4294  0.3145  -1.4137   0.0000   0.4438
   4.000   1.0810   0.01636   0.00821  -0.1947  0.4154  0.4278  -1.5417   0.0000   0.4214
   6.000   1.2505   0.01688   0.00967  -0.1806  0.3964  1.0000  -1.7605   0.0000   0.3827
   7.000   1.3651   0.01917   0.01181  -0.1817  0.3835  1.0000  -1.9085   0.0000   0.3698
   8.000   1.4759   0.02028   0.01314  -0.1817  0.3759  1.0000  -2.0811   0.0000   0.3582
   9.000   1.5849   0.02144   0.01437  -0.1816  0.3642  1.0000  -2.2793   0.0000   0.3478
  10.000   1.6901   0.02381   0.01688  -0.1815  0.3496  1.0000  -2.5171   0.0000   0.3387
  11.000   1.7899   0.02469   0.01812  -0.1799  0.3388  1.0000  -2.8616   0.0000   0.3299
  12.000   1.8906   0.02535   0.01879  -0.1785  0.3230  1.0000  -3.2284   0.0000   0.3217
  13.000   1.9769   0.02623   0.02013  -0.1748  0.3042  1.0000  -3.5823   0.0000   0.3135
  14.000   2.0563   0.02750   0.02155  -0.1702  0.2850  1.0000  -3.9743   0.0000   0.3055
  15.000   2.1053   0.02912   0.02356  -0.1604  0.2628  1.0000  -4.3180   0.0000   0.2966
  16.000   2.1202   0.03337   0.02817  -0.1477  0.2336  1.0000  -4.5863   0.0000   0.2878
  17.000   2.0774   0.04615   0.04126  -0.1401  0.1991  1.0000  -4.6920   0.0000   0.2831
  18.000   1.9867   0.06928   0.06475  -0.1410  0.1716  1.0000  -4.6350   0.0000   0.2840
  19.000   1.8907   0.09573   0.09150  -0.1462  0.1478  1.0000  -4.5278   0.0000   0.2877
  20.000   1.8246   0.11986   0.11582  -0.1540  0.1245  1.0000  -4.4777   0.0000   0.2923
  21.000   1.7836   0.14032   0.13640  -0.1627  0.1037  1.0000  -4.5147   0.0000   0.2965
  22.000   1.7603   0.15727   0.15342  -0.1718  0.0868  1.0000  -4.6324   0.0000   0.3001
  23.000   1.7484   0.17375   0.17018  -0.1808  0.0764  1.0000  -4.9634   0.0000   0.3031
  24.000   1.7484   0.18848   0.18521  -0.1887  0.0682  1.0000  -5.5197   0.0000   0.3045
  25.000   1.7326   0.20813   0.20525  -0.1994  0.0613  1.0000  -5.9472   0.0000   0.3087


