XFLR5 v6.09.05 beta

 Calculated polar for: -15s1223

 1 1 Reynolds number fixed          Mach number fixed         

 xtrf =   1.000 (top)        1.000 (bottom)
 Mach =   0.000     Re =     0.020 e 6     Ncrit =   9.000

  alpha     CL        CD       CDp       Cm    Top Xtr Bot Xtr   Cpmin    Chinge    XCp    
 ------- -------- --------- --------- -------- ------- ------- -------- --------- ---------
   0.000   0.0037   0.08656   0.08023  -0.0142  0.9999  1.0000  -0.7356   0.0000   4.3851
   1.000   0.0292   0.08264   0.07647  -0.0216  0.9749  0.9916  -0.7466   0.0000   1.0242
   2.000  -0.1269   0.08876   0.08306   0.0113  0.9723  0.8910  -0.8434   0.0000   0.3286
   3.000  -0.2870   0.08979   0.08457   0.0428  1.0000  0.8222  -0.9496   0.0000   0.3927
   4.000  -0.3994   0.08456   0.07960   0.0503  1.0000  0.6990  -1.0725   0.0000   0.3705
   5.000   0.0217   0.07769   0.06947  -0.0831  1.0000  0.2727  -1.1411   0.0000   4.0706
   6.000   0.1599   0.07738   0.06798  -0.1015  1.0000  0.3074  -0.9928   0.0000   0.8781
   8.000   0.3526   0.08318   0.07203  -0.1100  1.0000  1.0000  -1.0464   0.0000   0.5524
   9.000   0.4163   0.09260   0.08014  -0.1136  1.0000  1.0000  -0.7578   0.0000   0.5120
  10.000   0.4756   0.10270   0.08948  -0.1173  1.0000  1.0000  -0.7004   0.0000   0.4846
  11.000   0.5317   0.11357   0.09988  -0.1214  1.0000  1.0000  -0.7352   0.0000   0.4650
  12.000   0.6171   0.12812   0.11419  -0.1327  0.9670  1.0000  -0.7954   0.0000   0.4503
  13.000   0.7268   0.14596   0.13183  -0.1456  0.8517  1.0000  -0.8963   0.0000   0.4345
  14.000   0.7814   0.15787   0.14380  -0.1482  0.7719  1.0000  -0.9577   0.0000   0.4224
  15.000   0.8236   0.17006   0.15613  -0.1506  0.7172  1.0000  -1.0122   0.0000   0.4141
  16.000   0.8857   0.19060   0.17702  -0.1562  0.6687  1.0000  -1.0961   0.0000   0.4061
  17.000   0.9084   0.19756   0.18423  -0.1580  0.6252  1.0000  -1.1424   0.0000   0.4022
  18.000   0.9488   0.21086   0.19783  -0.1620  0.5763  1.0000  -1.2003   0.0000   0.3974
  19.000   0.9924   0.22844   0.21575  -0.1668  0.5339  1.0000  -1.2440   0.0000   0.3930
  20.000   1.0218   0.24212   0.22976  -0.1717  0.4991  1.0000  -1.2809   0.0000   0.3912
  21.000   1.0532   0.25850   0.24688  -0.1767  0.4622  1.0000  -1.3095   0.0000   0.3890
  22.000   1.0713   0.27218   0.26089  -0.1827  0.4385  1.0000  -1.2918   0.0000   0.3898
  23.000   1.0970   0.29124   0.28033  -0.1881  0.4112  1.0000  -1.3250   0.0000   0.3887
  24.000   1.1513   0.33306   0.32267  -0.1933  0.3855  1.0000  -1.4142   0.0000   0.3830
  25.000   1.1302   0.32748   0.31771  -0.1985  0.3654  1.0000  -1.3630   0.0000   0.3886


