XFLR5 v6.09.05 beta

 Calculated polar for: -15s1223

 1 1 Reynolds number fixed          Mach number fixed         

 xtrf =   1.000 (top)        1.000 (bottom)
 Mach =   0.000     Re =     0.025 e 6     Ncrit =   9.000

  alpha     CL        CD       CDp       Cm    Top Xtr Bot Xtr   Cpmin    Chinge    XCp    
 ------- -------- --------- --------- -------- ------- ------- -------- --------- ---------
   0.000   0.2952   0.06007   0.05374  -0.0781  0.8968  1.0000  -0.8241   0.0000   0.5147
   1.000   0.1914   0.06913   0.06312  -0.0535  0.8667  0.9230  -0.7550   0.0000   0.5302
   2.000   0.0304   0.07918   0.07367  -0.0220  0.8652  0.8587  -0.7475   0.0000   0.9935
   3.000  -0.1307   0.08443   0.07949   0.0076  0.8982  0.8187  -0.8385   0.0000   0.2997
   4.000  -0.3159   0.08398   0.07964   0.0498  1.0000  0.8368  -0.9285   0.0000   0.4018
   5.000   0.0265   0.07586   0.06848  -0.0865  1.0000  0.2317  -1.1562   0.0000   3.5155
   6.000   0.1805   0.07549   0.06652  -0.1080  1.0000  0.2277  -1.0108   0.0000   0.8416
   7.000   0.2932   0.07968   0.07009  -0.1160  1.0000  0.3699  -1.0339   0.0000   0.6374
   8.000   0.3628   0.08283   0.07312  -0.1136  1.0000  1.0000  -1.0425   0.0000   0.5538
   9.000   0.4264   0.09244   0.08152  -0.1172  1.0000  1.0000  -0.7556   0.0000   0.5141
  11.000   0.6406   0.12029   0.10803  -0.1403  0.8481  1.0000  -0.8201   0.0000   0.4560
  12.000   0.7261   0.13565   0.12316  -0.1456  0.7680  1.0000  -0.9011   0.0000   0.4361
  13.000   0.7571   0.14499   0.13247  -0.1450  0.7173  1.0000  -0.9309   0.0000   0.4257
  14.000   0.8471   0.16864   0.15612  -0.1524  0.6704  1.0000  -1.0385   0.0000   0.4126
  15.000   0.8512   0.17164   0.15930  -0.1505  0.6277  1.0000  -1.0526   0.0000   0.4081
  16.000   0.8888   0.18294   0.17094  -0.1532  0.5817  1.0000  -1.1101   0.0000   0.4022
  17.000   0.9330   0.19715   0.18538  -0.1569  0.5381  1.0000  -1.1898   0.0000   0.3964
  18.000   0.9665   0.20975   0.19824  -0.1614  0.5038  1.0000  -1.2327   0.0000   0.3935
  19.000   1.0016   0.22390   0.21267  -0.1661  0.4666  1.0000  -1.2630   0.0000   0.3906
  20.000   1.0300   0.23810   0.22716  -0.1715  0.4355  1.0000  -1.2972   0.0000   0.3896
  21.000   1.0593   0.25523   0.24495  -0.1772  0.4103  1.0000  -1.3151   0.0000   0.3885
  22.000   1.1018   0.28199   0.27208  -0.1822  0.3837  1.0000  -1.3571   0.0000   0.3846
  23.000   1.1182   0.29242   0.28287  -0.1880  0.3568  1.0000  -1.3726   0.0000   0.3852
  24.000   1.1271   0.30826   0.29902  -0.1947  0.3428  1.0000  -1.3497   0.0000   0.3877
  25.000   1.1698   0.34393   0.33543  -0.1985  0.3190  1.0000  -1.4646   0.0000   0.3824


