XFLR5 v6.09.05 beta

 Calculated polar for: -15s1223

 1 1 Reynolds number fixed          Mach number fixed         

 xtrf =   1.000 (top)        1.000 (bottom)
 Mach =   0.000     Re =     0.200 e 6     Ncrit =   9.000

  alpha     CL        CD       CDp       Cm    Top Xtr Bot Xtr   Cpmin    Chinge    XCp    
 ------- -------- --------- --------- -------- ------- ------- -------- --------- ---------
   0.000   0.1992   0.04782   0.04239  -0.1092  0.5128  0.0475  -1.2957   0.0000   0.7937
   1.000   0.3280   0.03464   0.02835  -0.1270  0.4899  0.0673  -1.1885   0.0000   0.6308
   2.000   0.4895   0.02024   0.01170  -0.1387  0.4716  0.0318  -1.5044   0.0000   0.5265
   3.000   0.6139   0.01852   0.00958  -0.1407  0.4538  0.0506  -1.1439   0.0000   0.4712
   4.000   0.7379   0.01744   0.00838  -0.1418  0.4415  0.0593  -1.2621   0.0000   0.4331
   5.000   0.8611   0.01716   0.00907  -0.1439  0.4275  0.4511  -1.3868   0.0000   0.4068
   6.000   0.9268   0.01853   0.01133  -0.1315  0.4174  0.8904  -1.4694   0.0000   0.3802
   7.000   0.9756   0.01886   0.01179  -0.1162  0.4095  0.9540  -1.5503   0.0000   0.3560
   8.000   1.0682   0.01949   0.01236  -0.1118  0.3986  1.0000  -1.6763   0.0000   0.3402
   9.000   1.1757   0.02217   0.01493  -0.1120  0.3862  1.0000  -1.8273   0.0000   0.3293
  10.000   1.2807   0.02380   0.01689  -0.1119  0.3764  1.0000  -2.0034   0.0000   0.3198
  11.000   1.3890   0.02501   0.01819  -0.1123  0.3632  1.0000  -2.2149   0.0000   0.3116
  12.000   1.4912   0.02766   0.02110  -0.1125  0.3496  1.0000  -2.4800   0.0000   0.3043
  13.000   1.5916   0.02860   0.02240  -0.1122  0.3343  1.0000  -2.8215   0.0000   0.2973
  14.000   1.6980   0.02953   0.02334  -0.1127  0.3175  1.0000  -3.1928   0.0000   0.2910
  15.000   1.7962   0.02882   0.02303  -0.1117  0.2965  1.0000  -3.5764   0.0000   0.2845
  16.000   1.8744   0.03036   0.02499  -0.1089  0.2744  1.0000  -3.9637   0.0000   0.2780
  17.000   1.9198   0.03311   0.02808  -0.1026  0.2483  1.0000  -4.2855   0.0000   0.2710
  18.000   1.8997   0.04444   0.03987  -0.1015  0.2184  1.0000  -4.4231   0.0000   0.2685
  19.000   1.8183   0.06575   0.06143  -0.1056  0.1901  1.0000  -4.3674   0.0000   0.2706
  20.000   1.7440   0.08850   0.08435  -0.1117  0.1632  1.0000  -4.3022   0.0000   0.2742
  21.000   1.6979   0.10915   0.10517  -0.1189  0.1397  1.0000  -4.2926   0.0000   0.2778
  22.000   1.6701   0.12776   0.12403  -0.1269  0.1207  1.0000  -4.3493   0.0000   0.2812
  23.000   1.6520   0.14498   0.14144  -0.1361  0.1046  1.0000  -4.4657   0.0000   0.2850
  24.000   1.6497   0.15913   0.15564  -0.1456  0.0889  1.0000  -4.8073   0.0000   0.2881
  25.000   1.6154   0.18213   0.17907  -0.1604  0.0783  1.0000  -4.9602   0.0000   0.2967


