XFLR5 v6.09.05 beta

 Calculated polar for: -15s1223

 1 1 Reynolds number fixed          Mach number fixed         

 xtrf =   1.000 (top)        1.000 (bottom)
 Mach =   0.000     Re =     0.340 e 6     Ncrit =   9.000

  alpha     CL        CD       CDp       Cm    Top Xtr Bot Xtr   Cpmin    Chinge    XCp    
 ------- -------- --------- --------- -------- ------- ------- -------- --------- ---------
   0.000   0.2035   0.04618   0.04123  -0.1070  0.4733  0.0279  -1.4020   0.0000   0.7711
   1.000   0.3430   0.02706   0.02102  -0.1307  0.4527  0.0330  -1.5197   0.0000   0.6247
   2.000   0.4985   0.01647   0.00858  -0.1399  0.4354  0.0214  -1.6069   0.0000   0.5237
   3.000   0.6244   0.01502   0.00670  -0.1418  0.4184  0.0302  -1.1668   0.0000   0.4689
   4.000   0.7500   0.01399   0.00561  -0.1438  0.4085  0.0405  -1.2928   0.0000   0.4323
   5.000   0.8775   0.01346   0.00582  -0.1468  0.3960  0.3730  -1.4244   0.0000   0.4066
   6.000   0.9882   0.01434   0.00761  -0.1455  0.3843  0.8343  -1.5421   0.0000   0.3854
   7.000   1.0734   0.01520   0.00855  -0.1379  0.3784  0.8853  -1.6558   0.0000   0.3651
   8.000   1.1608   0.01565   0.00902  -0.1316  0.3694  0.9118  -1.7826   0.0000   0.3485
   9.000   1.2596   0.01631   0.00967  -0.1286  0.3596  0.9247  -1.9371   0.0000   0.3357
  10.000   1.3533   0.01766   0.01114  -0.1251  0.3491  0.9415  -2.1095   0.0000   0.3244
  11.000   1.4465   0.01791   0.01157  -0.1215  0.3392  0.9559  -2.3147   0.0000   0.3142
  12.000   1.5633   0.01875   0.01251  -0.1237  0.3263  0.9511  -2.6367   0.0000   0.3074
  13.000   1.6746   0.01991   0.01392  -0.1253  0.3124  0.9470  -3.0058   0.0000   0.3010
  14.000   1.7823   0.02028   0.01440  -0.1261  0.2923  0.9436  -3.3891   0.0000   0.2947
  15.000   1.8830   0.02126   0.01577  -0.1260  0.2737  0.9416  -3.8010   0.0000   0.2887
  16.000   1.9713   0.02284   0.01756  -0.1244  0.2454  0.9401  -4.2217   0.0000   0.2825
  17.000   2.0094   0.02717   0.02187  -0.1168  0.1926  0.9389  -4.5374   0.0000   0.2752
  18.000   1.9499   0.04283   0.03779  -0.1128  0.1584  0.9381  -4.5800   0.0000   0.2725
  19.000   1.8561   0.06626   0.06163  -0.1158  0.1398  0.9366  -4.4956   0.0000   0.2747
  20.000   1.7754   0.09088   0.08654  -0.1221  0.1203  0.9350  -4.4191   0.0000   0.2786
  21.000   1.7158   0.11418   0.11005  -0.1300  0.1017  0.9336  -4.3787   0.0000   0.2833
  22.000   1.6852   0.13376   0.12982  -0.1383  0.0869  0.9326  -4.4372   0.0000   0.2871
  23.000   1.6670   0.15142   0.14762  -0.1474  0.0749  0.9318  -4.5619   0.0000   0.2909
  24.000   1.6740   0.16393   0.16042  -0.1553  0.0668  0.9316  -5.0031   0.0000   0.2923
  25.000   1.6662   0.18011   0.17682  -0.1655  0.0591  0.9316  -5.4867   0.0000   0.2961


