XFLR5 v6.09.05 beta

 Calculated polar for: -15s1223

 1 1 Reynolds number fixed          Mach number fixed         

 xtrf =   1.000 (top)        1.000 (bottom)
 Mach =   0.000     Re =     0.035 e 6     Ncrit =   9.000

  alpha     CL        CD       CDp       Cm    Top Xtr Bot Xtr   Cpmin    Chinge    XCp    
 ------- -------- --------- --------- -------- ------- ------- -------- --------- ---------
   2.000   0.1922   0.06730   0.06192  -0.0521  0.7368  0.7081  -0.7754   0.0000   0.5193
   3.000  -0.0449   0.07849   0.07396  -0.0101  0.7545  0.7202  -0.7680   0.0000   0.0121
   6.000   0.2040   0.07311   0.06477  -0.1150  1.0000  0.1665  -1.0861   0.0000   0.8078
   8.000   0.5061   0.08765   0.07881  -0.1367  0.8392  1.0000  -0.7819   0.0000   0.5110
   9.000   0.6021   0.09975   0.09001  -0.1411  0.7710  1.0000  -0.8056   0.0000   0.4739
  10.000   0.6487   0.10977   0.09965  -0.1402  0.7207  1.0000  -0.8386   0.0000   0.4544
  11.000   0.7203   0.12268   0.11230  -0.1428  0.6765  1.0000  -0.9093   0.0000   0.4352
  12.000   0.7994   0.13942   0.12887  -0.1469  0.6374  1.0000  -0.9948   0.0000   0.4193
  13.000   0.8192   0.14841   0.13788  -0.1456  0.5969  1.0000  -1.0142   0.0000   0.4119
  14.000   0.8571   0.16032   0.14987  -0.1472  0.5602  1.0000  -1.0654   0.0000   0.4044
  15.000   0.8871   0.17058   0.16041  -0.1489  0.5208  1.0000  -1.1165   0.0000   0.3991
  16.000   0.9289   0.18470   0.17469  -0.1522  0.4864  1.0000  -1.1906   0.0000   0.3935
  17.000   0.9902   0.20710   0.19732  -0.1566  0.4543  1.0000  -1.3009   0.0000   0.3861
  18.000   1.0335   0.22552   0.21600  -0.1604  0.4195  1.0000  -1.3641   0.0000   0.3815
  19.000   1.0550   0.23359   0.22435  -0.1643  0.3871  1.0000  -1.3882   0.0000   0.3802
  20.000   1.0566   0.23670   0.22794  -0.1712  0.3601  1.0000  -1.3578   0.0000   0.3847
  21.000   1.0777   0.25189   0.24339  -0.1780  0.3385  1.0000  -1.3488   0.0000   0.3860
  22.000   1.1333   0.28516   0.27701  -0.1817  0.3188  1.0000  -1.4387   0.0000   0.3790
  23.000   1.1279   0.28694   0.27903  -0.1902  0.2982  1.0000  -1.3850   0.0000   0.3854
  24.000   1.1458   0.30670   0.29908  -0.1962  0.2819  1.0000  -1.3978   0.0000   0.3858
  25.000   1.1746   0.33004   0.32305  -0.1999  0.2616  1.0000  -1.4848   0.0000   0.3824


