XFLR5 v6.09.05 beta

 Calculated polar for: -15s1223

 1 1 Reynolds number fixed          Mach number fixed         

 xtrf =   1.000 (top)        1.000 (bottom)
 Mach =   0.000     Re =     0.175 e 6     Ncrit =   9.000

  alpha     CL        CD       CDp       Cm    Top Xtr Bot Xtr   Cpmin    Chinge    XCp    
 ------- -------- --------- --------- -------- ------- ------- -------- --------- ---------
   0.000   0.1857   0.05250   0.04705  -0.1007  0.5231  0.0548  -1.0777   0.0000   0.7878
   1.000   0.3082   0.03905   0.03309  -0.1199  0.5016  0.0737  -1.0230   0.0000   0.6325
   2.000   0.4862   0.02186   0.01335  -0.1386  0.4825  0.0362  -1.4292   0.0000   0.5284
   3.000   0.6102   0.01941   0.01043  -0.1402  0.4651  0.0565  -1.1371   0.0000   0.4719
   4.000   0.7343   0.01881   0.00953  -0.1414  0.4513  0.0663  -1.2518   0.0000   0.4336
   5.000   0.8525   0.01853   0.01056  -0.1425  0.4373  0.4736  -1.3689   0.0000   0.4069
   6.000   0.9034   0.01918   0.01187  -0.1261  0.4273  0.9089  -1.4459   0.0000   0.3780
   7.000   0.9515   0.02039   0.01313  -0.1115  0.4179  0.9804  -1.5213   0.0000   0.3542
   8.000   1.0602   0.02193   0.01471  -0.1114  0.4069  1.0000  -1.6559   0.0000   0.3408
   9.000   1.1685   0.02366   0.01641  -0.1115  0.3955  1.0000  -1.8102   0.0000   0.3296
  10.000   1.2701   0.02689   0.01977  -0.1114  0.3831  1.0000  -1.9804   0.0000   0.3203
  11.000   1.3686   0.02900   0.02222  -0.1109  0.3694  1.0000  -2.1735   0.0000   0.3119
  12.000   1.4814   0.02990   0.02319  -0.1118  0.3560  1.0000  -2.4536   0.0000   0.3044
  13.000   1.5641   0.03332   0.02714  -0.1101  0.3400  1.0000  -2.7542   0.0000   0.2974
  14.000   1.6815   0.03252   0.02627  -0.1113  0.3234  1.0000  -3.1487   0.0000   0.2910
  15.000   1.7623   0.03366   0.02801  -0.1087  0.3019  1.0000  -3.4824   0.0000   0.2842
  16.000   1.8461   0.03421   0.02881  -0.1063  0.2804  1.0000  -3.8830   0.0000   0.2777
  17.000   1.8938   0.03635   0.03119  -0.1003  0.2557  1.0000  -4.2090   0.0000   0.2706
  18.000   1.8713   0.04778   0.04311  -0.0999  0.2278  1.0000  -4.3362   0.0000   0.2685
  19.000   1.7903   0.06913   0.06479  -0.1046  0.1994  1.0000  -4.2760   0.0000   0.2711
  20.000   1.7149   0.09227   0.08816  -0.1113  0.1714  1.0000  -4.1991   0.0000   0.2752
  21.000   1.6722   0.11267   0.10873  -0.1189  0.1464  1.0000  -4.1884   0.0000   0.2790
  22.000   1.6494   0.13038   0.12663  -0.1266  0.1268  1.0000  -4.2538   0.0000   0.2822
  23.000   1.6581   0.14220   0.13856  -0.1325  0.1105  1.0000  -4.4717   0.0000   0.2825


