XFLR5 v6.09.05 beta

 Calculated polar for: -15s1223

 1 1 Reynolds number fixed          Mach number fixed         

 xtrf =   1.000 (top)        1.000 (bottom)
 Mach =   0.000     Re =     0.315 e 6     Ncrit =   9.000

  alpha     CL        CD       CDp       Cm    Top Xtr Bot Xtr   Cpmin    Chinge    XCp    
 ------- -------- --------- --------- -------- ------- ------- -------- --------- ---------
   0.000   0.2121   0.04641   0.04133  -0.1091  0.4784  0.0285  -1.4266   0.0000   0.7595
   1.000   0.3361   0.02922   0.02326  -0.1287  0.4553  0.0356  -1.4046   0.0000   0.6263
   2.000   0.4964   0.01714   0.00921  -0.1396  0.4402  0.0227  -1.5709   0.0000   0.5242
   3.000   0.6235   0.01524   0.00678  -0.1417  0.4216  0.0324  -1.1643   0.0000   0.4692
   4.000   0.7481   0.01449   0.00598  -0.1435  0.4126  0.0422  -1.2888   0.0000   0.4324
   5.000   0.8757   0.01388   0.00623  -0.1465  0.4004  0.3856  -1.4197   0.0000   0.4067
   6.000   0.9822   0.01474   0.00789  -0.1441  0.3880  0.8422  -1.5355   0.0000   0.3848
   7.000   1.0597   0.01569   0.00894  -0.1348  0.3817  0.8938  -1.6417   0.0000   0.3638
   8.000   1.1504   0.01624   0.00953  -0.1293  0.3732  0.9195  -1.7702   0.0000   0.3476
   9.000   1.2451   0.01680   0.01014  -0.1254  0.3638  0.9348  -1.9199   0.0000   0.3343
  10.000   1.3350   0.01836   0.01173  -0.1212  0.3512  0.9525  -2.0873   0.0000   0.3228
  11.000   1.4327   0.01867   0.01225  -0.1186  0.3425  0.9656  -2.2948   0.0000   0.3131
  12.000   1.5480   0.01941   0.01317  -0.1205  0.3302  0.9615  -2.6076   0.0000   0.3062
  13.000   1.6574   0.02081   0.01474  -0.1218  0.3156  0.9576  -2.9716   0.0000   0.2998
  14.000   1.7667   0.02078   0.01491  -0.1228  0.2966  0.9542  -3.3571   0.0000   0.2936
  15.000   1.8675   0.02197   0.01645  -0.1230  0.2777  0.9512  -3.7634   0.0000   0.2877
  16.000   1.9571   0.02348   0.01819  -0.1217  0.2509  0.9489  -4.1856   0.0000   0.2816
  17.000   2.0001   0.02738   0.02215  -0.1147  0.2062  0.9473  -4.5111   0.0000   0.2744
  18.000   1.9572   0.04120   0.03626  -0.1109  0.1691  0.9466  -4.5988   0.0000   0.2713
  19.000   1.8588   0.06496   0.06040  -0.1140  0.1490  0.9450  -4.5022   0.0000   0.2736
  20.000   1.7743   0.08996   0.08566  -0.1203  0.1281  0.9430  -4.4138   0.0000   0.2777
  21.000   1.7124   0.11348   0.10936  -0.1283  0.1076  0.9418  -4.3660   0.0000   0.2825
  22.000   1.6764   0.13392   0.12991  -0.1372  0.0895  0.9410  -4.4054   0.0000   0.2869
  23.000   1.6664   0.15023   0.14648  -0.1456  0.0785  0.9406  -4.5619   0.0000   0.2898
  24.000   1.6680   0.16362   0.16009  -0.1540  0.0693  0.9405  -4.9485   0.0000   0.2919
  25.000   1.6632   0.17935   0.17613  -0.1640  0.0621  0.9408  -5.4545   0.0000   0.2954


