XFLR5 v6.09.05 beta

 Calculated polar for: -15s1223

 1 1 Reynolds number fixed          Mach number fixed         

 xtrf =   1.000 (top)        1.000 (bottom)
 Mach =   0.000     Re =     0.160 e 6     Ncrit =   9.000

  alpha     CL        CD       CDp       Cm    Top Xtr Bot Xtr   Cpmin    Chinge    XCp    
 ------- -------- --------- --------- -------- ------- ------- -------- --------- ---------
   0.000   0.2171   0.05362   0.04774  -0.1115  0.5301  0.0638  -1.1740   0.0000   0.7590
   1.000   0.3157   0.03911   0.03297  -0.1233  0.5094  0.0897  -1.0429   0.0000   0.6342
   2.000   0.4844   0.02308   0.01445  -0.1385  0.4895  0.0393  -1.4015   0.0000   0.5292
   3.000   0.6080   0.02042   0.01140  -0.1401  0.4724  0.0594  -1.1301   0.0000   0.4726
   4.000   0.7324   0.01957   0.01018  -0.1412  0.4571  0.0761  -1.2457   0.0000   0.4339
   5.000   0.8463   0.01969   0.01168  -0.1415  0.4445  0.4885  -1.3565   0.0000   0.4071
   6.000   0.8863   0.02029   0.01306  -0.1228  0.4341  0.9205  -1.4239   0.0000   0.3770
   7.000   0.9538   0.02095   0.01352  -0.1121  0.4242  1.0000  -1.5181   0.0000   0.3547
   8.000   1.0549   0.02371   0.01637  -0.1113  0.4129  1.0000  -1.6424   0.0000   0.3413
   9.000   1.1570   0.02612   0.01891  -0.1108  0.4006  1.0000  -1.7869   0.0000   0.3301
  10.000   1.2666   0.02815   0.02086  -0.1113  0.3882  1.0000  -1.9708   0.0000   0.3206
  11.000   1.3525   0.03212   0.02532  -0.1099  0.3740  1.0000  -2.1413   0.0000   0.3124
  12.000   1.4588   0.03323   0.02649  -0.1101  0.3596  1.0000  -2.4015   0.0000   0.3046
  13.000   1.5408   0.03715   0.03098  -0.1086  0.3439  1.0000  -2.6984   0.0000   0.2977
  14.000   1.6497   0.03660   0.03053  -0.1087  0.3267  1.0000  -3.0724   0.0000   0.2909
  15.000   1.3406   0.08555   0.08064  -0.1109  0.2819  1.0000  -2.4584   0.0000   0.3069
  16.000   1.5297   0.06955   0.06478  -0.1046  0.2777  1.0000  -3.0598   0.0000   0.2894
  17.000   1.8832   0.03836   0.03303  -0.0995  0.2592  1.0000  -4.1739   0.0000   0.2706
  18.000   1.8494   0.05053   0.04579  -0.0991  0.2330  1.0000  -4.2693   0.0000   0.2688
  19.000   1.7861   0.06948   0.06497  -0.1031  0.2037  1.0000  -4.2584   0.0000   0.2705
  20.000   1.7072   0.09295   0.08872  -0.1102  0.1760  1.0000  -4.1680   0.0000   0.2749
  21.000   1.6573   0.11460   0.11060  -0.1185  0.1507  1.0000  -4.1283   0.0000   0.2796
  22.000   1.6454   0.13032   0.12647  -0.1253  0.1301  1.0000  -4.2299   0.0000   0.2817
  23.000   1.2725   0.24087   0.23755  -0.1805  0.1054  1.0000  -2.2681   0.0000   0.3529
  24.000   1.2509   0.27690   0.27376  -0.1949  0.1063  1.0000  -1.9923   0.0000   0.3663


