XFLR5 v6.09.05 beta

 Calculated polar for: -15s1223

 1 1 Reynolds number fixed          Mach number fixed         

 xtrf =   1.000 (top)        1.000 (bottom)
 Mach =   0.000     Re =     0.300 e 6     Ncrit =   9.000

  alpha     CL        CD       CDp       Cm    Top Xtr Bot Xtr   Cpmin    Chinge    XCp    
 ------- -------- --------- --------- -------- ------- ------- -------- --------- ---------
   0.000   0.2152   0.04610   0.04092  -0.1104  0.4817  0.0286  -1.4561   0.0000   0.7580
   1.000   0.3324   0.03022   0.02430  -0.1274  0.4601  0.0380  -1.3582   0.0000   0.6269
   2.000   0.4952   0.01757   0.00960  -0.1394  0.4431  0.0236  -1.5531   0.0000   0.5245
   3.000   0.6218   0.01534   0.00686  -0.1414  0.4266  0.0341  -1.1630   0.0000   0.4692
   4.000   0.7469   0.01484   0.00625  -0.1432  0.4150  0.0432  -1.2862   0.0000   0.4325
   5.000   0.8744   0.01422   0.00653  -0.1462  0.4030  0.3926  -1.4163   0.0000   0.4067
   6.000   0.9791   0.01483   0.00794  -0.1432  0.3923  0.8471  -1.5325   0.0000   0.3844
   7.000   1.0508   0.01611   0.00929  -0.1327  0.3835  0.8996  -1.6323   0.0000   0.3630
   8.000   1.1388   0.01656   0.00981  -0.1267  0.3758  0.9258  -1.7581   0.0000   0.3465
   9.000   1.2379   0.01728   0.01060  -0.1238  0.3661  0.9404  -1.9105   0.0000   0.3337
  10.000   1.3252   0.01844   0.01172  -0.1189  0.3538  0.9603  -2.0765   0.0000   0.3218
  11.000   1.4205   0.01911   0.01263  -0.1161  0.3448  0.9739  -2.2779   0.0000   0.3121
  12.000   1.5382   0.01997   0.01373  -0.1186  0.3324  0.9681  -2.5884   0.0000   0.3055
  13.000   1.6488   0.02147   0.01532  -0.1202  0.3172  0.9638  -2.9539   0.0000   0.2992
  14.000   1.7570   0.02130   0.01535  -0.1209  0.2990  0.9608  -3.3366   0.0000   0.2930
  15.000   1.8565   0.02249   0.01692  -0.1208  0.2801  0.9581  -3.7372   0.0000   0.2870
  16.000   1.9453   0.02392   0.01859  -0.1194  0.2542  0.9559  -4.1565   0.0000   0.2809
  17.000   1.9962   0.02727   0.02216  -0.1133  0.2147  0.9544  -4.4992   0.0000   0.2739
  18.000   1.9501   0.04109   0.03619  -0.1091  0.1772  0.9542  -4.5791   0.0000   0.2707
  19.000   1.8517   0.06476   0.06019  -0.1124  0.1547  0.9526  -4.4817   0.0000   0.2730
  20.000   1.7694   0.08949   0.08516  -0.1188  0.1325  0.9506  -4.3990   0.0000   0.2771
  21.000   1.7088   0.11287   0.10871  -0.1270  0.1109  0.9489  -4.3542   0.0000   0.2819
  22.000   1.6728   0.13352   0.12951  -0.1361  0.0925  0.9477  -4.3931   0.0000   0.2865
  23.000   1.6656   0.14933   0.14560  -0.1442  0.0805  0.9473  -4.5603   0.0000   0.2891
  24.000   1.6637   0.16328   0.15971  -0.1529  0.0707  0.9475  -4.9101   0.0000   0.2916
  25.000   1.6595   0.17886   0.17569  -0.1628  0.0639  0.9486  -5.4185   0.0000   0.2950


