XFLR5 v6.09.05 beta

 Calculated polar for: -15s1223

 1 1 Reynolds number fixed          Mach number fixed         

 xtrf =   1.000 (top)        1.000 (bottom)
 Mach =   0.000     Re =     0.090 e 6     Ncrit =   9.000

  alpha     CL        CD       CDp       Cm    Top Xtr Bot Xtr   Cpmin    Chinge    XCp    
 ------- -------- --------- --------- -------- ------- ------- -------- --------- ---------
   0.000   0.1950   0.06353   0.05774  -0.1075  0.5881  0.1394  -0.9343   0.0000   0.7990
   1.000   0.2679   0.05315   0.04728  -0.1070  0.5676  0.1759  -0.8742   0.0000   0.6444
   2.000   0.4627   0.03238   0.02381  -0.1378  0.5472  0.0644  -1.3033   0.0000   0.5422
   3.000   0.5853   0.02881   0.01939  -0.1396  0.5289  0.0846  -1.0714   0.0000   0.4815
   4.000   0.6845   0.02855   0.01973  -0.1369  0.5127  0.1655  -1.1458   0.0000   0.4420
   5.000   0.7827   0.02921   0.02180  -0.1337  0.4974  0.6518  -1.2434   0.0000   0.4116
   6.000   0.7938   0.03308   0.02583  -0.1133  0.4858  1.0000  -1.2686   0.0000   0.3824
   7.000   0.8593   0.04160   0.03440  -0.1141  0.4691  1.0000  -1.3141   0.0000   0.3714
   8.000   0.9707   0.04357   0.03584  -0.1121  0.4574  1.0000  -1.4639   0.0000   0.3526
   9.000   0.8526   0.07470   0.06787  -0.1234  0.4410  1.0000  -1.2225   0.0000   0.3821
  10.000   0.8637   0.09296   0.08621  -0.1286  0.4511  1.0000  -1.1920   0.0000   0.3854
  11.000   0.9404   0.11159   0.10484  -0.1325  0.4551  1.0000  -1.2754   0.0000   0.3762
  12.000   1.0017   0.10615   0.09925  -0.1254  0.3880  1.0000  -1.4381   0.0000   0.3581
  13.000   0.9826   0.12826   0.12172  -0.1327  0.3883  1.0000  -1.3645   0.0000   0.3673
  14.000   0.9519   0.14187   0.13550  -0.1372  0.3606  1.0000  -1.2962   0.0000   0.3754
  15.000   0.9691   0.15503   0.14880  -0.1412  0.3342  1.0000  -1.3308   0.0000   0.3755
  16.000   1.0510   0.15906   0.15283  -0.1384  0.2831  1.0000  -1.5902   0.0000   0.3587
  17.000   1.0747   0.17277   0.16676  -0.1438  0.2643  1.0000  -1.6383   0.0000   0.3592
  18.000   1.1302   0.17910   0.17341  -0.1446  0.2277  1.0000  -1.8192   0.0000   0.3506
  19.000   1.1933   0.18491   0.17944  -0.1449  0.2050  1.0000  -2.0585   0.0000   0.3413
  20.000   1.1369   0.21643   0.21119  -0.1650  0.1982  1.0000  -1.6918   0.0000   0.3653
  22.000   1.1572   0.25890   0.25407  -0.1859  0.1909  1.0000  -1.5334   0.0000   0.3779
  23.000   1.2155   0.27925   0.27483  -0.1861  0.1797  1.0000  -1.7251   0.0000   0.3674
  24.000   1.1936   0.29777   0.29346  -0.2008  0.1654  1.0000  -1.5642   0.0000   0.3813
  25.000   1.2575   0.32763   0.32366  -0.1983  0.1543  1.0000  -1.8611   0.0000   0.3674


