XFLR5 v6.09.05 beta

 Calculated polar for: -15s1223

 1 1 Reynolds number fixed          Mach number fixed         

 xtrf =   1.000 (top)        1.000 (bottom)
 Mach =   0.000     Re =     0.230 e 6     Ncrit =   9.000

  alpha     CL        CD       CDp       Cm    Top Xtr Bot Xtr   Cpmin    Chinge    XCp    
 ------- -------- --------- --------- -------- ------- ------- -------- --------- ---------
   0.000   0.1893   0.04949   0.04422  -0.1030  0.5005  0.0405  -1.2064   0.0000   0.7893
   1.000   0.3217   0.03416   0.02828  -0.1244  0.4803  0.0527  -1.1858   0.0000   0.6301
   2.000   0.4882   0.02057   0.01226  -0.1378  0.4595  0.0282  -1.4624   0.0000   0.5253
   3.000   0.6152   0.01778   0.00908  -0.1404  0.4451  0.0440  -1.1506   0.0000   0.4702
   4.000   0.7412   0.01624   0.00729  -0.1422  0.4317  0.0527  -1.2728   0.0000   0.4326
   5.000   0.8667   0.01641   0.00845  -0.1451  0.4177  0.4321  -1.3967   0.0000   0.4070
   6.000   0.9456   0.01700   0.00999  -0.1356  0.4090  0.8745  -1.4915   0.0000   0.3816
   7.000   1.0050   0.01749   0.01049  -0.1223  0.4001  0.9335  -1.5841   0.0000   0.3585
   8.000   1.0880   0.01833   0.01117  -0.1156  0.3896  0.9629  -1.7038   0.0000   0.3416
  10.000   1.2905   0.02106   0.01428  -0.1125  0.3690  1.0000  -2.0254   0.0000   0.3195
  11.000   1.4029   0.02223   0.01534  -0.1136  0.3563  1.0000  -2.2444   0.0000   0.3115
  12.000   1.5037   0.02443   0.01805  -0.1134  0.3440  1.0000  -2.5125   0.0000   0.3041
  13.000   1.6132   0.02475   0.01847  -0.1141  0.3289  1.0000  -2.8755   0.0000   0.2974
  14.000   1.7125   0.02605   0.02003  -0.1138  0.3120  1.0000  -3.2332   0.0000   0.2909
  15.000   1.8153   0.02596   0.02005  -0.1137  0.2902  1.0000  -3.6317   0.0000   0.2848
  16.000   1.8973   0.02719   0.02181  -0.1113  0.2683  1.0000  -4.0303   0.0000   0.2784
  17.000   1.9467   0.03009   0.02507  -0.1052  0.2394  1.0000  -4.3639   0.0000   0.2714
  18.000   1.9240   0.04153   0.03680  -0.1028  0.2072  1.0000  -4.4999   0.0000   0.2683
  19.000   1.8424   0.06261   0.05809  -0.1061  0.1791  1.0000  -4.4483   0.0000   0.2700
  20.000   1.7708   0.08484   0.08052  -0.1116  0.1537  1.0000  -4.3963   0.0000   0.2731
  21.000   1.7184   0.10621   0.10206  -0.1189  0.1305  1.0000  -4.3781   0.0000   0.2767
  22.000   1.6861   0.12562   0.12159  -0.1273  0.1097  1.0000  -4.4353   0.0000   0.2806
  23.000   1.6569   0.14540   0.14164  -0.1380  0.0943  1.0000  -4.5187   0.0000   0.2858
  24.000   1.6423   0.16220   0.15876  -0.1488  0.0816  1.0000  -4.7686   0.0000   0.2905
  25.000   1.6473   0.17602   0.17274  -0.1580  0.0714  1.0000  -5.2768   0.0000   0.2929


