XFLR5 v6.09.05 beta

 Calculated polar for: -15s1223

 1 1 Reynolds number fixed          Mach number fixed         

 xtrf =   1.000 (top)        1.000 (bottom)
 Mach =   0.000     Re =     0.245 e 6     Ncrit =   9.000

  alpha     CL        CD       CDp       Cm    Top Xtr Bot Xtr   Cpmin    Chinge    XCp    
 ------- -------- --------- --------- -------- ------- ------- -------- --------- ---------
   0.000   0.1873   0.04896   0.04370  -0.1027  0.4941  0.0363  -1.2212   0.0000   0.7934
   1.000   0.3281   0.03210   0.02613  -0.1266  0.4760  0.0499  -1.2713   0.0000   0.6295
   2.000   0.4910   0.01969   0.01142  -0.1386  0.4544  0.0271  -1.4951   0.0000   0.5253
   3.000   0.6169   0.01697   0.00837  -0.1407  0.4408  0.0420  -1.1537   0.0000   0.4700
   4.000   0.7424   0.01590   0.00696  -0.1424  0.4270  0.0495  -1.2767   0.0000   0.4325
   5.000   0.8687   0.01580   0.00793  -0.1454  0.4146  0.4231  -1.4017   0.0000   0.4069
   6.000   0.9535   0.01636   0.00942  -0.1373  0.4050  0.8668  -1.5011   0.0000   0.3822
   7.000   1.0183   0.01694   0.00993  -0.1252  0.3962  0.9245  -1.5993   0.0000   0.3597
   8.000   1.0984   0.01848   0.01142  -0.1181  0.3847  0.9529  -1.7133   0.0000   0.3429
   9.000   1.1928   0.01919   0.01230  -0.1145  0.3772  0.9700  -1.8563   0.0000   0.3299
  10.000   1.2945   0.01994   0.01319  -0.1128  0.3659  1.0000  -2.0348   0.0000   0.3194
  11.000   1.4023   0.02226   0.01548  -0.1135  0.3516  1.0000  -2.2446   0.0000   0.3115
  12.000   1.5087   0.02316   0.01685  -0.1138  0.3413  1.0000  -2.5255   0.0000   0.3041
  13.000   1.6196   0.02348   0.01718  -0.1147  0.3263  1.0000  -2.8924   0.0000   0.2974
  14.000   1.7189   0.02466   0.01868  -0.1144  0.3091  1.0000  -3.2508   0.0000   0.2910
  15.000   1.8200   0.02507   0.01923  -0.1142  0.2878  1.0000  -3.6462   0.0000   0.2848
  16.000   1.9050   0.02607   0.02065  -0.1121  0.2653  1.0000  -4.0536   0.0000   0.2786
  17.000   1.9544   0.02912   0.02403  -0.1060  0.2351  1.0000  -4.3877   0.0000   0.2716
  18.000   1.9328   0.04057   0.03584  -0.1034  0.2025  1.0000  -4.5272   0.0000   0.2684
  19.000   1.8493   0.06205   0.05762  -0.1069  0.1758  1.0000  -4.4703   0.0000   0.2702
  20.000   1.7705   0.08544   0.08124  -0.1127  0.1511  1.0000  -4.3979   0.0000   0.2737
  21.000   1.7142   0.10748   0.10345  -0.1202  0.1279  1.0000  -4.3666   0.0000   0.2777
  22.000   1.6795   0.12743   0.12351  -0.1289  0.1072  1.0000  -4.4160   0.0000   0.2819
  23.000   1.6587   0.14540   0.14155  -0.1385  0.0895  1.0000  -4.5340   0.0000   0.2860
  24.000   1.6445   0.16227   0.15876  -0.1493  0.0785  1.0000  -4.7881   0.0000   0.2907
  25.000   1.6453   0.17702   0.17382  -0.1589  0.0701  1.0000  -5.2710   0.0000   0.2936


