XFLR5 v6.09.05 beta

 Calculated polar for: -15s1223

 1 1 Reynolds number fixed          Mach number fixed         

 xtrf =   1.000 (top)        1.000 (bottom)
 Mach =   0.000     Re =     0.235 e 6     Ncrit =   9.000

  alpha     CL        CD       CDp       Cm    Top Xtr Bot Xtr   Cpmin    Chinge    XCp    
 ------- -------- --------- --------- -------- ------- ------- -------- --------- ---------
   0.000   0.1872   0.04943   0.04417  -0.1023  0.4985  0.0388  -1.2021   0.0000   0.7920
   1.000   0.3236   0.03350   0.02760  -0.1250  0.4788  0.0516  -1.2116   0.0000   0.6300
   2.000   0.4896   0.02028   0.01195  -0.1382  0.4568  0.0278  -1.4764   0.0000   0.5253
   3.000   0.6158   0.01747   0.00881  -0.1405  0.4436  0.0434  -1.1517   0.0000   0.4701
   4.000   0.7416   0.01610   0.00715  -0.1422  0.4302  0.0516  -1.2742   0.0000   0.4326
   5.000   0.8675   0.01619   0.00827  -0.1452  0.4167  0.4291  -1.3985   0.0000   0.4070
   6.000   0.9481   0.01677   0.00979  -0.1361  0.4076  0.8718  -1.4946   0.0000   0.3818
   7.000   1.0092   0.01728   0.01028  -0.1232  0.3988  0.9304  -1.5891   0.0000   0.3588
   8.000   1.0909   0.01851   0.01137  -0.1163  0.3873  0.9596  -1.7062   0.0000   0.3420
   9.000   1.1837   0.01963   0.01268  -0.1127  0.3795  0.9784  -1.8455   0.0000   0.3291
  10.000   1.2919   0.02067   0.01390  -0.1126  0.3679  1.0000  -2.0287   0.0000   0.3195
  11.000   1.4033   0.02216   0.01529  -0.1136  0.3547  1.0000  -2.2455   0.0000   0.3115
  12.000   1.5054   0.02399   0.01764  -0.1135  0.3431  1.0000  -2.5169   0.0000   0.3041
  13.000   1.6157   0.02428   0.01799  -0.1144  0.3280  1.0000  -2.8819   0.0000   0.2974
  14.000   1.7147   0.02557   0.01956  -0.1140  0.3110  1.0000  -3.2392   0.0000   0.2910
  15.000   1.8172   0.02576   0.01984  -0.1139  0.2888  1.0000  -3.6371   0.0000   0.2848
  16.000   1.9001   0.02678   0.02139  -0.1116  0.2673  1.0000  -4.0388   0.0000   0.2785
  17.000   1.9498   0.02973   0.02469  -0.1055  0.2380  1.0000  -4.3731   0.0000   0.2715
  18.000   1.9259   0.04128   0.03651  -0.1029  0.2053  1.0000  -4.5066   0.0000   0.2684
  19.000   1.8448   0.06239   0.05789  -0.1063  0.1780  1.0000  -4.4562   0.0000   0.2701
  20.000   1.7708   0.08503   0.08075  -0.1120  0.1529  1.0000  -4.3971   0.0000   0.2733
  21.000   1.7165   0.10672   0.10262  -0.1194  0.1298  1.0000  -4.3724   0.0000   0.2771
  22.000   1.6835   0.12633   0.12234  -0.1279  0.1090  1.0000  -4.4271   0.0000   0.2811
  23.000   1.6590   0.14504   0.14120  -0.1380  0.0920  1.0000  -4.5313   0.0000   0.2857
  24.000   1.6430   0.16225   0.15880  -0.1490  0.0804  1.0000  -4.7752   0.0000   0.2906
  25.000   1.6463   0.17643   0.17319  -0.1584  0.0710  1.0000  -5.2721   0.0000   0.2932


