XFLR5 v6.09.05 beta

 Calculated polar for: -15s1223

 1 1 Reynolds number fixed          Mach number fixed         

 xtrf =   1.000 (top)        1.000 (bottom)
 Mach =   0.000     Re =     0.130 e 6     Ncrit =   9.000

  alpha     CL        CD       CDp       Cm    Top Xtr Bot Xtr   Cpmin    Chinge    XCp    
 ------- -------- --------- --------- -------- ------- ------- -------- --------- ---------
   0.000   0.2127   0.05718   0.05135  -0.1102  0.5500  0.0857  -1.0586   0.0000   0.7643
   1.000   0.3021   0.04411   0.03793  -0.1186  0.5280  0.1156  -0.9214   0.0000   0.6367
   2.000   0.4800   0.02560   0.01685  -0.1380  0.5090  0.0457  -1.3827   0.0000   0.5311
   3.000   0.6027   0.02304   0.01368  -0.1398  0.4905  0.0656  -1.1143   0.0000   0.4744
   4.000   0.7227   0.02159   0.01248  -0.1403  0.4762  0.1183  -1.2200   0.0000   0.4355
   5.000   0.8325   0.02197   0.01389  -0.1394  0.4615  0.5335  -1.3303   0.0000   0.4075
   6.000   0.8413   0.02328   0.01595  -0.1143  0.4519  0.9555  -1.3705   0.0000   0.3746
   7.000   0.9344   0.02560   0.01828  -0.1114  0.4397  1.0000  -1.4711   0.0000   0.3567
   8.000   1.0403   0.02766   0.02010  -0.1109  0.4268  1.0000  -1.6068   0.0000   0.3427
   9.000   1.1270   0.03287   0.02553  -0.1098  0.4146  1.0000  -1.7278   0.0000   0.3321
  10.000   1.2103   0.03750   0.03056  -0.1089  0.3982  1.0000  -1.8639   0.0000   0.3232
  11.000   1.1698   0.05804   0.05189  -0.1093  0.3707  1.0000  -1.8040   0.0000   0.3257
  12.000   1.3146   0.05280   0.04653  -0.1060  0.3614  1.0000  -2.1111   0.0000   0.3107
  13.000   1.4696   0.04916   0.04282  -0.1059  0.3518  1.0000  -2.5297   0.0000   0.2998
  16.000   1.1568   0.13300   0.12768  -0.1276  0.2442  1.0000  -1.9783   0.0000   0.3349
  17.000   1.2645   0.12868   0.12368  -0.1233  0.2333  1.0000  -2.3678   0.0000   0.3188
  18.000   1.2707   0.14279   0.13800  -0.1292  0.2073  1.0000  -2.4269   0.0000   0.3211
  21.000   1.2516   0.20128   0.19709  -0.1598  0.1373  1.0000  -2.2937   0.0000   0.3425
  22.000   1.2351   0.23003   0.22613  -0.1738  0.1249  1.0000  -2.0835   0.0000   0.3547
  23.000   1.2391   0.25849   0.25481  -0.1838  0.1296  1.0000  -1.9642   0.0000   0.3610
  24.000   1.2330   0.28746   0.28399  -0.1965  0.1344  1.0000  -1.8116   0.0000   0.3709
  25.000   1.2534   0.31567   0.31243  -0.2011  0.1308  1.0000  -1.8795   0.0000   0.3697


