XFLR5 v6.09.05 beta

 Calculated polar for: -15s1223

 1 1 Reynolds number fixed          Mach number fixed         

 xtrf =   1.000 (top)        1.000 (bottom)
 Mach =   0.000     Re =     0.110 e 6     Ncrit =   9.000

  alpha     CL        CD       CDp       Cm    Top Xtr Bot Xtr   Cpmin    Chinge    XCp    
 ------- -------- --------- --------- -------- ------- ------- -------- --------- ---------
   0.000   0.1816   0.05883   0.05315  -0.0972  0.5676  0.0996  -0.9064   0.0000   0.7821
   1.000   0.2889   0.04808   0.04215  -0.1146  0.5448  0.1431  -0.8929   0.0000   0.6410
   2.000   0.4744   0.02766   0.01893  -0.1385  0.5264  0.0541  -1.3342   0.0000   0.5357
   3.000   0.5953   0.02483   0.01566  -0.1398  0.5068  0.0743  -1.0948   0.0000   0.4775
   4.000   0.7088   0.02415   0.01524  -0.1385  0.4916  0.2335  -1.1966   0.0000   0.4369
   5.000   0.8141   0.02532   0.01755  -0.1377  0.4766  0.5742  -1.2905   0.0000   0.4095
   6.000   0.8228   0.02599   0.01872  -0.1126  0.4656  1.0000  -1.3339   0.0000   0.3759
   7.000   0.9200   0.03015   0.02254  -0.1114  0.4541  1.0000  -1.4391   0.0000   0.3589
   8.000   0.9958   0.03604   0.02877  -0.1104  0.4372  1.0000  -1.5194   0.0000   0.3475
   9.000   1.0961   0.03925   0.03182  -0.1099  0.4255  1.0000  -1.6655   0.0000   0.3354
  10.000   1.0167   0.06614   0.05958  -0.1154  0.3961  1.0000  -1.5095   0.0000   0.3482
  11.000   1.2002   0.05707   0.05028  -0.1089  0.3891  1.0000  -1.8482   0.0000   0.3230
  12.000   1.0905   0.08614   0.07976  -0.1168  0.3563  1.0000  -1.6586   0.0000   0.3386
  15.000   1.1795   0.11831   0.11231  -0.1200  0.2883  1.0000  -1.9886   0.0000   0.3279
  16.000   1.1754   0.13321   0.12742  -0.1256  0.2615  1.0000  -2.0188   0.0000   0.3314
  18.000   1.1823   0.16371   0.15855  -0.1385  0.2090  1.0000  -2.0600   0.0000   0.3384
  19.000   1.1963   0.17771   0.17275  -0.1458  0.1843  1.0000  -2.1099   0.0000   0.3413
  21.000   1.2127   0.21514   0.21056  -0.1645  0.1502  1.0000  -2.0322   0.0000   0.3519
  24.000   1.2320   0.29821   0.29442  -0.1945  0.1535  1.0000  -1.7772   0.0000   0.3698
  25.000   1.2242   0.31375   0.31013  -0.2062  0.1361  1.0000  -1.6999   0.0000   0.3785


