XFLR5 v6.09.05 beta

 Calculated polar for: -15s1223

 1 1 Reynolds number fixed          Mach number fixed         

 xtrf =   1.000 (top)        1.000 (bottom)
 Mach =   0.000     Re =     0.260 e 6     Ncrit =   9.000

  alpha     CL        CD       CDp       Cm    Top Xtr Bot Xtr   Cpmin    Chinge    XCp    
 ------- -------- --------- --------- -------- ------- ------- -------- --------- ---------
   0.000   0.1905   0.04750   0.04228  -0.1048  0.4901  0.0337  -1.2944   0.0000   0.7952
   1.000   0.3356   0.03027   0.02410  -0.1290  0.4719  0.0481  -1.3633   0.0000   0.6279
   2.000   0.4922   0.01895   0.01078  -0.1388  0.4516  0.0261  -1.5136   0.0000   0.5251
   3.000   0.6183   0.01638   0.00784  -0.1409  0.4368  0.0396  -1.1567   0.0000   0.4698
   4.000   0.7439   0.01590   0.00701  -0.1428  0.4210  0.0466  -1.2786   0.0000   0.4327
   5.000   0.8703   0.01531   0.00749  -0.1456  0.4113  0.4136  -1.4060   0.0000   0.4068
   6.000   0.9622   0.01582   0.00890  -0.1393  0.4013  0.8604  -1.5112   0.0000   0.3829
   7.000   1.0329   0.01669   0.00968  -0.1284  0.3922  0.9167  -1.6143   0.0000   0.3611
   8.000   1.1143   0.01792   0.01095  -0.1215  0.3825  0.9439  -1.7302   0.0000   0.3443
   9.000   1.2056   0.01859   0.01176  -0.1171  0.3739  0.9606  -1.8716   0.0000   0.3309
  10.000   1.2972   0.01901   0.01227  -0.1129  0.3632  0.9903  -2.0421   0.0000   0.3192
  11.000   1.4057   0.02111   0.01442  -0.1137  0.3501  1.0000  -2.2526   0.0000   0.3114
  12.000   1.5132   0.02204   0.01577  -0.1142  0.3387  1.0000  -2.5374   0.0000   0.3040
  13.000   1.6240   0.02269   0.01637  -0.1152  0.3233  1.0000  -2.9039   0.0000   0.2975
  15.000   1.8245   0.02414   0.01839  -0.1147  0.2863  0.9890  -3.6599   0.0000   0.2849
  16.000   1.9115   0.02524   0.01978  -0.1130  0.2622  0.9865  -4.0727   0.0000   0.2788
  17.000   1.9595   0.02842   0.02328  -0.1066  0.2308  0.9936  -4.4042   0.0000   0.2717
  18.000   1.9421   0.03965   0.03495  -0.1041  0.1972  1.0000  -4.5555   0.0000   0.2685
  19.000   1.8544   0.06168   0.05729  -0.1076  0.1712  1.0000  -4.4881   0.0000   0.2704
  20.000   1.7704   0.08591   0.08177  -0.1137  0.1473  1.0000  -4.4011   0.0000   0.2742
  21.000   1.7129   0.10818   0.10420  -0.1212  0.1242  1.0000  -4.3666   0.0000   0.2783
  22.000   1.6761   0.12854   0.12468  -0.1300  0.1038  1.0000  -4.4089   0.0000   0.2827
  23.000   1.6555   0.14656   0.14280  -0.1395  0.0872  1.0000  -4.5245   0.0000   0.2868
  24.000   1.6468   0.16216   0.15859  -0.1495  0.0760  1.0000  -4.8053   0.0000   0.2906
  25.000   1.6462   0.17732   0.17416  -0.1594  0.0685  1.0000  -5.2904   0.0000   0.2939


