XFLR5 v6.09.05 beta

 Calculated polar for: -15s1223

 1 1 Reynolds number fixed          Mach number fixed         

 xtrf =   1.000 (top)        1.000 (bottom)
 Mach =   0.000     Re =     0.075 e 6     Ncrit =   9.000

  alpha     CL        CD       CDp       Cm    Top Xtr Bot Xtr   Cpmin    Chinge    XCp    
 ------- -------- --------- --------- -------- ------- ------- -------- --------- ---------
   0.000   0.1775   0.06733   0.06166  -0.1002  0.6098  0.1711  -0.8546   0.0000   0.8138
   1.000   0.2449   0.05866   0.05304  -0.1013  0.5892  0.2098  -0.8417   0.0000   0.6597
   2.000   0.4471   0.03674   0.02847  -0.1381  0.5700  0.0880  -1.2211   0.0000   0.5536
   3.000   0.5642   0.03369   0.02469  -0.1406  0.5495  0.0961  -1.0227   0.0000   0.4928
   4.000   0.6639   0.03317   0.02422  -0.1366  0.5346  0.1673  -1.1026   0.0000   0.4483
   5.000   0.7326   0.03673   0.02980  -0.1314  0.5186  0.6766  -1.1585   0.0000   0.4209
   7.000   0.8413   0.04827   0.04058  -0.1172  0.4942  1.0000  -1.2669   0.0000   0.3784
   8.000   0.7900   0.07104   0.06384  -0.1269  0.4979  1.0000  -1.1253   0.0000   0.3997
   9.000   0.8746   0.08301   0.07559  -0.1282  0.4925  1.0000  -1.2208   0.0000   0.3843
  10.000   0.7671   0.10146   0.09440  -0.1349  0.5055  1.0000  -1.0158   0.0000   0.4134
  11.000   0.8062   0.11283   0.10568  -0.1357  0.4796  1.0000  -1.0550   0.0000   0.4045
  12.000   0.9581   0.12934   0.12205  -0.1371  0.4559  1.0000  -1.2832   0.0000   0.3773
  13.000   0.9524   0.13658   0.12938  -0.1373  0.4225  1.0000  -1.2791   0.0000   0.3770
  14.000   0.9412   0.14674   0.13978  -0.1394  0.3916  1.0000  -1.2576   0.0000   0.3797
  15.000   0.9566   0.15869   0.15185  -0.1428  0.3619  1.0000  -1.2874   0.0000   0.3794
  16.000   0.9788   0.17242   0.16575  -0.1477  0.3396  1.0000  -1.3352   0.0000   0.3796
  17.000   1.0789   0.19487   0.18838  -0.1483  0.3190  1.0000  -1.5642   0.0000   0.3639
  18.000   1.1158   0.20801   0.20193  -0.1512  0.2884  1.0000  -1.6379   0.0000   0.3600
  19.000   1.0848   0.21147   0.20556  -0.1624  0.2646  1.0000  -1.5138   0.0000   0.3729
  20.000   1.0982   0.22714   0.22141  -0.1714  0.2439  1.0000  -1.4809   0.0000   0.3776
  21.000   1.1782   0.25696   0.25151  -0.1710  0.2309  1.0000  -1.6593   0.0000   0.3641
  22.000   1.1577   0.26053   0.25520  -0.1839  0.2091  1.0000  -1.5417   0.0000   0.3762
  23.000   1.1846   0.28496   0.27985  -0.1896  0.2027  1.0000  -1.5736   0.0000   0.3753
  24.000   1.1938   0.29891   0.29417  -0.1984  0.1831  1.0000  -1.5754   0.0000   0.3792
  25.000   1.1959   0.32034   0.31580  -0.2065  0.1706  1.0000  -1.5458   0.0000   0.3838


