XFLR5 v6.09.05 beta

 Calculated polar for: -15s1223

 1 1 Reynolds number fixed          Mach number fixed         

 xtrf =   1.000 (top)        1.000 (bottom)
 Mach =   0.000     Re =     0.100 e 6     Ncrit =   9.000

  alpha     CL        CD       CDp       Cm    Top Xtr Bot Xtr   Cpmin    Chinge    XCp    
 ------- -------- --------- --------- -------- ------- ------- -------- --------- ---------
   0.000   0.1852   0.05982   0.05418  -0.1016  0.5766  0.1156  -0.9281   0.0000   0.7957
   1.000   0.2719   0.05114   0.04535  -0.1075  0.5557  0.1526  -0.8823   0.0000   0.6401
   2.000   0.4697   0.02926   0.02065  -0.1382  0.5362  0.0589  -1.3149   0.0000   0.5382
   3.000   0.5897   0.02676   0.01757  -0.1397  0.5172  0.0795  -1.0814   0.0000   0.4798
   4.000   0.6991   0.02544   0.01678  -0.1375  0.5014  0.2466  -1.1761   0.0000   0.4385
   5.000   0.8028   0.02728   0.01959  -0.1365  0.4868  0.6092  -1.2719   0.0000   0.4105
   6.000   0.8060   0.02961   0.02248  -0.1127  0.4740  1.0000  -1.2972   0.0000   0.3792
   7.000   0.9057   0.03295   0.02544  -0.1118  0.4619  1.0000  -1.4067   0.0000   0.3615
   8.000   0.9609   0.04282   0.03561  -0.1117  0.4444  1.0000  -1.4522   0.0000   0.3534
   9.000   1.0285   0.05048   0.04332  -0.1122  0.4278  1.0000  -1.5398   0.0000   0.3449
  11.000   1.0382   0.08112   0.07432  -0.1179  0.3891  1.0000  -1.5351   0.0000   0.3471
  13.000   0.9828   0.11774   0.11141  -0.1280  0.3401  1.0000  -1.4120   0.0000   0.3618
  14.000   1.1253   0.11525   0.10887  -0.1212  0.3206  1.0000  -1.7687   0.0000   0.3363
  15.000   1.1117   0.13076   0.12456  -0.1265  0.2916  1.0000  -1.7774   0.0000   0.3410
  16.000   1.0920   0.14915   0.14318  -0.1339  0.2651  1.0000  -1.7390   0.0000   0.3487
  17.000   1.0920   0.16564   0.15988  -0.1412  0.2411  1.0000  -1.7274   0.0000   0.3540
  18.000   1.1219   0.17723   0.17184  -0.1461  0.2151  1.0000  -1.8007   0.0000   0.3530
  20.000   1.1783   0.20315   0.19815  -0.1584  0.1727  1.0000  -1.9418   0.0000   0.3531
  21.000   1.1698   0.23090   0.22613  -0.1716  0.1744  1.0000  -1.7347   0.0000   0.3646
  22.000   1.2231   0.25957   0.25507  -0.1742  0.1786  1.0000  -1.8545   0.0000   0.3581
  23.000   1.1827   0.27713   0.27275  -0.1933  0.1715  1.0000  -1.5626   0.0000   0.3784
  24.000   1.2269   0.29400   0.29001  -0.1951  0.1562  1.0000  -1.7581   0.0000   0.3710
  25.000   1.2098   0.31757   0.31373  -0.2078  0.1452  1.0000  -1.6076   0.0000   0.3823


