XFLR5 v6.09.05 beta

 Calculated polar for: -15s1223

 1 1 Reynolds number fixed          Mach number fixed         

 xtrf =   1.000 (top)        1.000 (bottom)
 Mach =   0.000     Re =     0.215 e 6     Ncrit =   9.000

  alpha     CL        CD       CDp       Cm    Top Xtr Bot Xtr   Cpmin    Chinge    XCp    
 ------- -------- --------- --------- -------- ------- ------- -------- --------- ---------
   0.000   0.2139   0.04983   0.04434  -0.1100  0.5058  0.0445  -1.2873   0.0000   0.7595
   1.000   0.3197   0.03563   0.02968  -0.1233  0.4851  0.0577  -1.1390   0.0000   0.6293
   2.000   0.4889   0.02038   0.01192  -0.1381  0.4658  0.0296  -1.4909   0.0000   0.5256
   3.000   0.6147   0.01805   0.00921  -0.1405  0.4496  0.0468  -1.1474   0.0000   0.4706
   4.000   0.7398   0.01678   0.00779  -0.1420  0.4363  0.0559  -1.2677   0.0000   0.4328
   5.000   0.8640   0.01715   0.00909  -0.1447  0.4202  0.4411  -1.3907   0.0000   0.4071
   6.000   0.9390   0.01776   0.01066  -0.1342  0.4133  0.8827  -1.4827   0.0000   0.3812
   7.000   0.9943   0.01825   0.01122  -0.1201  0.4044  0.9425  -1.5704   0.0000   0.3577
   8.000   1.0738   0.01860   0.01145  -0.1126  0.3944  0.9752  -1.6877   0.0000   0.3403
   9.000   1.1784   0.02097   0.01388  -0.1121  0.3833  1.0000  -1.8344   0.0000   0.3291
  10.000   1.2858   0.02234   0.01552  -0.1122  0.3725  1.0000  -2.0149   0.0000   0.3197
  11.000   1.3978   0.02329   0.01642  -0.1131  0.3599  1.0000  -2.2331   0.0000   0.3115
  12.000   1.4981   0.02590   0.01943  -0.1130  0.3469  1.0000  -2.4977   0.0000   0.3042
  13.000   1.6039   0.02645   0.02021  -0.1132  0.3314  1.0000  -2.8520   0.0000   0.2973
  14.000   1.7055   0.02766   0.02157  -0.1133  0.3149  1.0000  -3.2139   0.0000   0.2910
  15.000   1.8076   0.02707   0.02122  -0.1128  0.2936  1.0000  -3.6093   0.0000   0.2846
  16.000   1.8870   0.02861   0.02325  -0.1102  0.2713  1.0000  -4.0002   0.0000   0.2782
  17.000   1.9351   0.03142   0.02645  -0.1040  0.2438  1.0000  -4.3296   0.0000   0.2712
  18.000   1.9151   0.04263   0.03799  -0.1022  0.2126  1.0000  -4.4707   0.0000   0.2683
  19.000   1.8326   0.06393   0.05952  -0.1059  0.1847  1.0000  -4.4149   0.0000   0.2703
  20.000   1.7590   0.08644   0.08218  -0.1117  0.1585  1.0000  -4.3554   0.0000   0.2736
  21.000   1.7110   0.10721   0.10312  -0.1187  0.1354  1.0000  -4.3464   0.0000   0.2770
  22.000   1.6784   0.12681   0.12296  -0.1274  0.1160  1.0000  -4.3947   0.0000   0.2810
  23.000   1.6549   0.14532   0.14173  -0.1372  0.0996  1.0000  -4.4948   0.0000   0.2855
  24.000   1.6423   0.16152   0.15809  -0.1478  0.0854  1.0000  -4.7615   0.0000   0.2899
  25.000   1.6468   0.17549   0.17216  -0.1572  0.0729  1.0000  -5.2594   0.0000   0.2924


