XFLR5 v6.09.05 beta

 Calculated polar for: -20S1223

 1 1 Reynolds number fixed          Mach number fixed         

 xtrf =   1.000 (top)        1.000 (bottom)
 Mach =   0.000     Re =     0.250 e 6     Ncrit =   9.000

  alpha     CL        CD       CDp       Cm    Top Xtr Bot Xtr   Cpmin    Chinge    XCp    
 ------- -------- --------- --------- -------- ------- ------- -------- --------- ---------
   0.000  -0.0182   0.06561   0.06062  -0.0640  0.4967  0.0283  -1.5099   0.0000  -3.2586
   1.000   0.0436   0.04981   0.04475  -0.0733  0.4809  0.0330  -1.4420   0.0000   1.9095
   2.000   0.1654   0.03864   0.03256  -0.0853  0.4627  0.0442  -1.4040   0.0000   0.7528
   3.000   0.2782   0.02591   0.01904  -0.0918  0.4482  0.0572  -1.2160   0.0000   0.5680
   4.000   0.4094   0.01736   0.00882  -0.0915  0.4355  0.0328  -1.3308   0.0000   0.4623
   5.000   0.5239   0.01705   0.00840  -0.0911  0.4213  0.0441  -1.1421   0.0000   0.4119
   6.000   0.6437   0.01547   0.00777  -0.0920  0.4118  0.3594  -1.2575   0.0000   0.3801
   7.000   0.7290   0.01672   0.01008  -0.0834  0.4022  0.8339  -1.3557   0.0000   0.3506
   8.000   0.8023   0.01828   0.01153  -0.0722  0.3932  0.8630  -1.4566   0.0000   0.3249
   9.000   0.8925   0.02032   0.01360  -0.0667  0.3835  0.8826  -1.5756   0.0000   0.3084
  10.000   0.9790   0.02083   0.01423  -0.0612  0.3743  0.8934  -1.7075   0.0000   0.2947
  11.000   1.0677   0.02146   0.01493  -0.0560  0.3639  0.9092  -1.8680   0.0000   0.2831
  12.000   1.1605   0.02328   0.01683  -0.0535  0.3518  0.9185  -2.0440   0.0000   0.2751
  13.000   1.2746   0.02435   0.01814  -0.0561  0.3396  0.9135  -2.2897   0.0000   0.2713
  14.000   1.3895   0.02447   0.01830  -0.0582  0.3249  0.9094  -2.6462   0.0000   0.2672
  15.000   1.4947   0.02533   0.01956  -0.0600  0.3092  0.9052  -2.9994   0.0000   0.2634
  16.000   1.6085   0.02506   0.01940  -0.0627  0.2882  0.9014  -3.3910   0.0000   0.2599
  17.000   1.7115   0.02574   0.02032  -0.0650  0.2641  0.8985  -3.8212   0.0000   0.2566
  18.000   1.7884   0.02880   0.02370  -0.0663  0.2321  0.8971  -4.2003   0.0000   0.2532
  19.000   1.7731   0.04034   0.03570  -0.0685  0.2004  0.8990  -4.3331   0.0000   0.2524
  20.000   1.7001   0.05990   0.05548  -0.0738  0.1741  0.9014  -4.2867   0.0000   0.2548
  21.000   1.6400   0.08030   0.07605  -0.0804  0.1498  0.9023  -4.2521   0.0000   0.2581
  22.000   1.5987   0.09968   0.09556  -0.0879  0.1273  0.9026  -4.2534   0.0000   0.2618
  23.000   1.5692   0.11844   0.11443  -0.0964  0.1077  0.9029  -4.3102   0.0000   0.2659
  24.000   1.5535   0.13566   0.13172  -0.1056  0.0905  0.9034  -4.4387   0.0000   0.2699
  25.000   1.5376   0.15355   0.14986  -0.1164  0.0787  0.9038  -4.6404   0.0000   0.2752


