XFLR5 v6.09.05 beta

 Calculated polar for: -20S1223

 1 1 Reynolds number fixed          Mach number fixed         

 xtrf =   1.000 (top)        1.000 (bottom)
 Mach =   0.000     Re =     0.345 e 6     Ncrit =   9.000

  alpha     CL        CD       CDp       Cm    Top Xtr Bot Xtr   Cpmin    Chinge    XCp    
 ------- -------- --------- --------- -------- ------- ------- -------- --------- ---------
   0.000  -0.0419   0.06268   0.05817  -0.0573  0.4773  0.0210  -1.4677   0.0000  -1.1157
   1.000   0.0472   0.04789   0.04300  -0.0743  0.4567  0.0244  -1.5327   0.0000   1.8025
   2.000   0.1687   0.02996   0.02391  -0.0887  0.4449  0.0294  -1.7804   0.0000   0.7636
   3.000   0.2951   0.01835   0.01067  -0.0924  0.4280  0.0192  -1.8360   0.0000   0.5518
   4.000   0.4150   0.01587   0.00777  -0.0924  0.4163  0.0269  -1.3441   0.0000   0.4611
   5.000   0.5314   0.01428   0.00613  -0.0922  0.4056  0.0383  -1.1605   0.0000   0.4114
   6.000   0.6537   0.01328   0.00569  -0.0936  0.3928  0.3090  -1.2812   0.0000   0.3803
   7.000   0.7689   0.01436   0.00790  -0.0933  0.3841  0.8121  -1.3977   0.0000   0.3574
   8.000   0.8476   0.01574   0.00940  -0.0833  0.3773  0.8307  -1.5042   0.0000   0.3331
   9.000   0.9435   0.01707   0.01066  -0.0782  0.3679  0.8482  -1.6346   0.0000   0.3164
  10.000   1.0375   0.01791   0.01142  -0.0742  0.3562  0.8588  -1.7764   0.0000   0.3035
  11.000   1.1256   0.01871   0.01248  -0.0687  0.3489  0.8712  -1.9390   0.0000   0.2915
  12.000   1.2236   0.01925   0.01312  -0.0659  0.3381  0.8879  -2.1350   0.0000   0.2826
  13.000   1.3370   0.02049   0.01430  -0.0677  0.3245  0.8830  -2.4069   0.0000   0.2776
  14.000   1.4474   0.02068   0.01490  -0.0695  0.3129  0.8789  -2.7610   0.0000   0.2731
  15.000   1.5597   0.02067   0.01483  -0.0717  0.2920  0.8748  -3.1384   0.0000   0.2689
  16.000   1.6704   0.02114   0.01577  -0.0744  0.2742  0.8709  -3.5381   0.0000   0.2652
  17.000   1.7735   0.02250   0.01733  -0.0768  0.2465  0.8673  -3.9752   0.0000   0.2616
  18.000   1.8504   0.02648   0.02143  -0.0785  0.2010  0.8645  -4.3611   0.0000   0.2583
  19.000   1.8080   0.04111   0.03626  -0.0795  0.1645  0.8630  -4.4274   0.0000   0.2575
  20.000   1.7230   0.06249   0.05792  -0.0843  0.1439  0.8631  -4.3507   0.0000   0.2602
  21.000   1.6533   0.08472   0.08035  -0.0911  0.1227  0.8634  -4.2920   0.0000   0.2641
  22.000   1.6052   0.10536   0.10112  -0.0987  0.1025  0.8642  -4.2780   0.0000   0.2683
  23.000   1.5793   0.12370   0.11962  -0.1066  0.0872  0.8657  -4.3461   0.0000   0.2719
  24.000   1.5621   0.14102   0.13705  -0.1153  0.0749  0.8681  -4.4641   0.0000   0.2758
  25.000   1.5638   0.15537   0.15175  -0.1237  0.0678  0.8710  -4.7867   0.0000   0.2785


