XFLR5 v6.09.05 beta

 Calculated polar for: -20S1223

 1 1 Reynolds number fixed          Mach number fixed         

 xtrf =   1.000 (top)        1.000 (bottom)
 Mach =   0.000     Re =     0.340 e 6     Ncrit =   9.000

  alpha     CL        CD       CDp       Cm    Top Xtr Bot Xtr   Cpmin    Chinge    XCp    
 ------- -------- --------- --------- -------- ------- ------- -------- --------- ---------
   0.000  -0.0417   0.06284   0.05832  -0.0572  0.4781  0.0214  -1.4574   0.0000  -1.1170
   1.000   0.0482   0.04796   0.04304  -0.0745  0.4571  0.0250  -1.5359   0.0000   1.7739
   4.000   0.4148   0.01601   0.00788  -0.0923  0.4170  0.0271  -1.3406   0.0000   0.4612
   5.000   0.5310   0.01438   0.00621  -0.0922  0.4064  0.0386  -1.1597   0.0000   0.4114
   6.000   0.6532   0.01332   0.00572  -0.0935  0.3939  0.3109  -1.2806   0.0000   0.3802
   7.000   0.7680   0.01452   0.00803  -0.0931  0.3846  0.8125  -1.3963   0.0000   0.3573
   8.000   0.8456   0.01589   0.00953  -0.0828  0.3780  0.8320  -1.5020   0.0000   0.3327
   9.000   0.9425   0.01730   0.01087  -0.0780  0.3685  0.8490  -1.6331   0.0000   0.3162
  10.000   1.0341   0.01782   0.01132  -0.0732  0.3577  0.8604  -1.7736   0.0000   0.3028
  11.000   1.1235   0.01889   0.01263  -0.0683  0.3494  0.8728  -1.9363   0.0000   0.2912
  12.000   1.2195   0.01931   0.01317  -0.0650  0.3387  0.8892  -2.1295   0.0000   0.2821
  13.000   1.3360   0.02067   0.01448  -0.0674  0.3256  0.8842  -2.4051   0.0000   0.2774
  14.000   1.4459   0.02090   0.01510  -0.0693  0.3134  0.8799  -2.7578   0.0000   0.2729
  15.000   1.5584   0.02075   0.01491  -0.0714  0.2931  0.8760  -3.1357   0.0000   0.2687
  16.000   1.6680   0.02130   0.01592  -0.0739  0.2749  0.8722  -3.5322   0.0000   0.2650
  17.000   1.7705   0.02263   0.01746  -0.0762  0.2475  0.8687  -3.9680   0.0000   0.2613
  18.000   1.8474   0.02656   0.02151  -0.0778  0.2032  0.8659  -4.3534   0.0000   0.2580
  19.000   1.8089   0.04076   0.03593  -0.0789  0.1664  0.8645  -4.4305   0.0000   0.2571
  20.000   1.7233   0.06216   0.05761  -0.0837  0.1457  0.8645  -4.3519   0.0000   0.2598
  21.000   1.6532   0.08442   0.08006  -0.0905  0.1243  0.8649  -4.2920   0.0000   0.2638
  22.000   1.6048   0.10509   0.10086  -0.0982  0.1038  0.8657  -4.2768   0.0000   0.2680
  23.000   1.5775   0.12366   0.11958  -0.1062  0.0878  0.8672  -4.3402   0.0000   0.2718
  24.000   1.5606   0.14100   0.13705  -0.1150  0.0758  0.8696  -4.4585   0.0000   0.2757
  25.000   1.5629   0.15522   0.15160  -0.1234  0.0683  0.8724  -4.7794   0.0000   0.2783


