XFLR5 v6.09.05 beta

 Calculated polar for: -20S1223

 1 1 Reynolds number fixed          Mach number fixed         

 xtrf =   1.000 (top)        1.000 (bottom)
 Mach =   0.000     Re =     0.040 e 6     Ncrit =   9.000

  alpha     CL        CD       CDp       Cm    Top Xtr Bot Xtr   Cpmin    Chinge    XCp    
 ------- -------- --------- --------- -------- ------- ------- -------- --------- ---------
   0.000  -0.0024   0.09168   0.08585  -0.0630  0.7358  0.3118  -0.8441   0.0000  -26.3115
   1.000   0.0212   0.08300   0.07760  -0.0635  0.7169  0.3616  -0.8322   0.0000   3.2784
   3.000   0.1402   0.06886   0.06270  -0.0944  0.6947  0.2396  -1.0074   0.0000   0.9188
   4.000   0.2480   0.06087   0.05326  -0.1113  0.6961  0.1551  -1.1267   0.0000   0.6928
   6.000  -0.0127   0.06454   0.05769  -0.0741  1.0000  0.1595  -1.2588   0.0000  -5.5973
   7.000   0.2641   0.06752   0.05801  -0.1051  0.8890  0.1660  -1.0345   0.0000   0.6394
   9.000   0.4132   0.07964   0.07091  -0.0900  0.7407  1.0000  -0.7695   0.0000   0.4571
  10.000   0.4970   0.09311   0.08364  -0.0926  0.7037  1.0000  -0.7897   0.0000   0.4245
  11.000   0.5162   0.09785   0.08810  -0.0886  0.6642  1.0000  -0.7993   0.0000   0.4086
  12.000   0.5617   0.10619   0.09622  -0.0880  0.6187  1.0000  -0.8426   0.0000   0.3925
  13.000   0.6104   0.11647   0.10638  -0.0892  0.5827  1.0000  -0.8918   0.0000   0.3807
  14.000   0.6573   0.12719   0.11706  -0.0908  0.5450  1.0000  -0.9400   0.0000   0.3714
  15.000   0.6984   0.13833   0.12825  -0.0929  0.5112  1.0000  -0.9915   0.0000   0.3651
  16.000   0.7393   0.15060   0.14064  -0.0960  0.4814  1.0000  -1.0516   0.0000   0.3606
  17.000   0.7837   0.16413   0.15444  -0.0996  0.4503  1.0000  -1.1260   0.0000   0.3565
  18.000   0.8648   0.18927   0.17979  -0.1052  0.4211  1.0000  -1.2684   0.0000   0.3493
  19.000   0.9013   0.20189   0.19269  -0.1089  0.3884  1.0000  -1.3185   0.0000   0.3469
  20.000   0.9005   0.20380   0.19479  -0.1138  0.3586  1.0000  -1.2872   0.0000   0.3511
  21.000   0.9169   0.21357   0.20478  -0.1218  0.3385  1.0000  -1.2748   0.0000   0.3561
  22.000   0.9594   0.23298   0.22473  -0.1279  0.3183  1.0000  -1.3149   0.0000   0.3547
  23.000   0.9972   0.24812   0.24017  -0.1345  0.2942  1.0000  -1.3554   0.0000   0.3542
  24.000   1.0096   0.26021   0.25248  -0.1443  0.2797  1.0000  -1.3282   0.0000   0.3605
  25.000   1.0703   0.29616   0.28882  -0.1483  0.2612  1.0000  -1.4707   0.0000   0.3538


