XFLR5 v6.09.05 beta

 Calculated polar for: -20S1223

 1 1 Reynolds number fixed          Mach number fixed         

 xtrf =   1.000 (top)        1.000 (bottom)
 Mach =   0.000     Re =     0.225 e 6     Ncrit =   9.000

  alpha     CL        CD       CDp       Cm    Top Xtr Bot Xtr   Cpmin    Chinge    XCp    
 ------- -------- --------- --------- -------- ------- ------- -------- --------- ---------
   0.000  -0.0398   0.06436   0.05948  -0.0587  0.5063  0.0320  -1.4181   0.0000  -1.2240
   1.000   0.0428   0.05206   0.04691  -0.0717  0.4876  0.0384  -1.3357   0.0000   1.9019
   2.000   0.1532   0.03654   0.03072  -0.0858  0.4715  0.0496  -1.3658   0.0000   0.7967
   3.000   0.2729   0.02765   0.02085  -0.0916  0.4542  0.0724  -1.1269   0.0000   0.5737
   4.000   0.4077   0.01838   0.00978  -0.0915  0.4424  0.0355  -1.3019   0.0000   0.4633
   5.000   0.5217   0.01712   0.00837  -0.0906  0.4301  0.0469  -1.1374   0.0000   0.4118
   6.000   0.6386   0.01646   0.00870  -0.0911  0.4177  0.3773  -1.2475   0.0000   0.3800
   7.000   0.7188   0.01806   0.01135  -0.0812  0.4086  0.8446  -1.3412   0.0000   0.3492
   8.000   0.7850   0.01943   0.01270  -0.0683  0.3997  0.8774  -1.4351   0.0000   0.3220
   9.000   0.8626   0.02130   0.01445  -0.0603  0.3873  0.8959  -1.5445   0.0000   0.3036
  10.000   0.9548   0.02228   0.01559  -0.0562  0.3801  0.9078  -1.6785   0.0000   0.2912
  11.000   1.0406   0.02303   0.01653  -0.0511  0.3689  0.9218  -1.8316   0.0000   0.2800
  12.000   1.1325   0.02374   0.01713  -0.0474  0.3573  0.9323  -2.0091   0.0000   0.2710
  13.000   1.2401   0.02591   0.01965  -0.0499  0.3445  0.9260  -2.2356   0.0000   0.2677
  14.000   1.3650   0.02614   0.02004  -0.0544  0.3300  0.9205  -2.5950   0.0000   0.2653
  15.000   1.4748   0.02783   0.02201  -0.0575  0.3136  0.9160  -2.9532   0.0000   0.2624
  16.000   1.5908   0.02684   0.02102  -0.0597  0.2917  0.9135  -3.3505   0.0000   0.2586
  17.000   1.6855   0.02758   0.02226  -0.0609  0.2699  0.9119  -3.7543   0.0000   0.2549
  18.000   1.7613   0.03021   0.02518  -0.0619  0.2403  0.9116  -4.1294   0.0000   0.2514
  19.000   1.7478   0.04152   0.03677  -0.0648  0.2086  0.9138  -4.2648   0.0000   0.2509
  20.000   1.6849   0.05992   0.05534  -0.0702  0.1801  0.9147  -4.2453   0.0000   0.2532
  21.000   1.6295   0.07965   0.07524  -0.0769  0.1548  0.9147  -4.2228   0.0000   0.2563
  22.000   1.5971   0.09749   0.09321  -0.0837  0.1322  0.9145  -4.2505   0.0000   0.2592
  23.000   1.5766   0.11447   0.11027  -0.0913  0.1119  0.9144  -4.3375   0.0000   0.2622
  24.000   1.5437   0.13513   0.13134  -0.1025  0.0988  0.9143  -4.3895   0.0000   0.2685
  25.000   1.5271   0.15297   0.14944  -0.1134  0.0854  0.9142  -4.5693   0.0000   0.2739


