XFLR5 v6.09.05 beta

 Calculated polar for: -20S1223

 1 1 Reynolds number fixed          Mach number fixed         

 xtrf =   1.000 (top)        1.000 (bottom)
 Mach =   0.000     Re =     0.230 e 6     Ncrit =   9.000

  alpha     CL        CD       CDp       Cm    Top Xtr Bot Xtr   Cpmin    Chinge    XCp    
 ------- -------- --------- --------- -------- ------- ------- -------- --------- ---------
   0.000  -0.0392   0.06355   0.05867  -0.0603  0.5050  0.0312  -1.4774   0.0000  -1.2865
   1.000   0.0420   0.05180   0.04668  -0.0715  0.4861  0.0370  -1.3426   0.0000   1.9303
   3.000   0.2740   0.02722   0.02041  -0.0918  0.4531  0.0712  -1.1408   0.0000   0.5731
   4.000   0.4081   0.01815   0.00957  -0.0915  0.4409  0.0349  -1.3075   0.0000   0.4631
   5.000   0.5222   0.01703   0.00829  -0.0907  0.4284  0.0462  -1.1389   0.0000   0.4117
   6.000   0.6397   0.01623   0.00850  -0.0913  0.4166  0.3738  -1.2497   0.0000   0.3800
   7.000   0.7206   0.01776   0.01107  -0.0816  0.4072  0.8423  -1.3439   0.0000   0.3494
   8.000   0.7875   0.01911   0.01238  -0.0688  0.3984  0.8743  -1.4391   0.0000   0.3223
   9.000   0.8695   0.02100   0.01418  -0.0618  0.3867  0.8927  -1.5516   0.0000   0.3047
  10.000   0.9581   0.02192   0.01525  -0.0568  0.3790  0.9048  -1.6831   0.0000   0.2916
  11.000   1.0499   0.02277   0.01625  -0.0529  0.3678  0.9189  -1.8428   0.0000   0.2812
  12.000   1.1344   0.02405   0.01748  -0.0481  0.3551  0.9294  -2.0108   0.0000   0.2715
  13.000   1.2483   0.02554   0.01929  -0.0515  0.3434  0.9229  -2.2481   0.0000   0.2686
  14.000   1.3755   0.02578   0.01966  -0.0562  0.3290  0.9174  -2.6153   0.0000   0.2663
  15.000   1.4789   0.02736   0.02155  -0.0579  0.3127  0.9138  -2.9629   0.0000   0.2625
  16.000   1.5936   0.02650   0.02069  -0.0601  0.2906  0.9113  -3.3573   0.0000   0.2588
  17.000   1.6904   0.02710   0.02176  -0.0616  0.2689  0.9094  -3.7674   0.0000   0.2551
  18.000   1.7668   0.02980   0.02473  -0.0626  0.2387  0.9088  -4.1443   0.0000   0.2517
  19.000   1.7532   0.04107   0.03629  -0.0652  0.2064  0.9113  -4.2803   0.0000   0.2510
  20.000   1.6868   0.06002   0.05548  -0.0710  0.1791  0.9127  -4.2505   0.0000   0.2535
  21.000   1.6309   0.07986   0.07550  -0.0776  0.1539  0.9128  -4.2264   0.0000   0.2567
  22.000   1.5972   0.09794   0.09370  -0.0846  0.1315  0.9127  -4.2503   0.0000   0.2597
  23.000   1.5746   0.11535   0.11121  -0.0924  0.1113  0.9126  -4.3301   0.0000   0.2630
  24.000   1.5474   0.13489   0.13102  -0.1030  0.0967  0.9125  -4.4094   0.0000   0.2686
  25.000   1.5292   0.15312   0.14958  -0.1141  0.0839  0.9125  -4.5847   0.0000   0.2742


