XFLR5 v6.09.05 beta

 Calculated polar for: -20S1223

 1 1 Reynolds number fixed          Mach number fixed         

 xtrf =   1.000 (top)        1.000 (bottom)
 Mach =   0.000     Re =     0.240 e 6     Ncrit =   9.000

  alpha     CL        CD       CDp       Cm    Top Xtr Bot Xtr   Cpmin    Chinge    XCp    
 ------- -------- --------- --------- -------- ------- ------- -------- --------- ---------
   0.000  -0.0355   0.06176   0.05685  -0.0644  0.5026  0.0299  -1.6217   0.0000  -1.5623
   1.000   0.0421   0.05099   0.04592  -0.0721  0.4834  0.0348  -1.3793   0.0000   1.9397
   2.000   0.1586   0.03434   0.02828  -0.0875  0.4673  0.0474  -1.4882   0.0000   0.7888
   3.000   0.2763   0.02646   0.01958  -0.0921  0.4507  0.0691  -1.1706   0.0000   0.5715
   4.000   0.4088   0.01773   0.00917  -0.0915  0.4381  0.0338  -1.3193   0.0000   0.4627
   5.000   0.5231   0.01704   0.00832  -0.0909  0.4245  0.0450  -1.1409   0.0000   0.4118
   6.000   0.6419   0.01583   0.00812  -0.0916  0.4142  0.3668  -1.2537   0.0000   0.3801
   7.000   0.7245   0.01721   0.01055  -0.0824  0.4046  0.8379  -1.3497   0.0000   0.3499
   8.000   0.7941   0.01860   0.01186  -0.0702  0.3959  0.8683  -1.4477   0.0000   0.3233
   9.000   0.8849   0.02064   0.01386  -0.0653  0.3852  0.8871  -1.5669   0.0000   0.3074
  10.000   0.9669   0.02131   0.01469  -0.0586  0.3766  0.8989  -1.6939   0.0000   0.2928
  11.000   1.0635   0.02237   0.01583  -0.0554  0.3657  0.9140  -1.8603   0.0000   0.2828
  12.000   1.1448   0.02380   0.01730  -0.0503  0.3531  0.9237  -2.0237   0.0000   0.2731
  13.000   1.2662   0.02499   0.01877  -0.0548  0.3413  0.9172  -2.2751   0.0000   0.2707
  14.000   1.3847   0.02509   0.01894  -0.0575  0.3271  0.9132  -2.6351   0.0000   0.2669
  15.000   1.4863   0.02627   0.02049  -0.0588  0.3110  0.9098  -2.9804   0.0000   0.2629
  16.000   1.6002   0.02571   0.01998  -0.0612  0.2895  0.9065  -3.3727   0.0000   0.2592
  17.000   1.7006   0.02631   0.02094  -0.0631  0.2667  0.9039  -3.7939   0.0000   0.2557
  18.000   1.7769   0.02920   0.02407  -0.0641  0.2352  0.9028  -4.1715   0.0000   0.2523
  19.000   1.7621   0.04072   0.03604  -0.0668  0.2038  0.9053  -4.3040   0.0000   0.2517
  20.000   1.6925   0.06002   0.05555  -0.0724  0.1768  0.9074  -4.2659   0.0000   0.2542
  21.000   1.6348   0.08012   0.07582  -0.0790  0.1520  0.9079  -4.2374   0.0000   0.2574
  22.000   1.5978   0.09880   0.09463  -0.0862  0.1296  0.9080  -4.2512   0.0000   0.2607
  23.000   1.5714   0.11693   0.11286  -0.0944  0.1097  0.9081  -4.3187   0.0000   0.2645
  24.000   1.5561   0.13400   0.12998  -0.1036  0.0919  0.9083  -4.4513   0.0000   0.2685
  25.000   1.5335   0.15335   0.14975  -0.1153  0.0812  0.9084  -4.6141   0.0000   0.2747


