XFLR5 v6.09.05 beta

 Calculated polar for: -20S1223

 1 1 Reynolds number fixed          Mach number fixed         

 xtrf =   1.000 (top)        1.000 (bottom)
 Mach =   0.000     Re =     0.330 e 6     Ncrit =   9.000

  alpha     CL        CD       CDp       Cm    Top Xtr Bot Xtr   Cpmin    Chinge    XCp    
 ------- -------- --------- --------- -------- ------- ------- -------- --------- ---------
   0.000  -0.0414   0.06313   0.05858  -0.0570  0.4799  0.0222  -1.4411   0.0000  -1.1250
   1.000   0.0522   0.04811   0.04315  -0.0749  0.4602  0.0266  -1.5536   0.0000   1.6659
   2.000   0.1657   0.02956   0.02355  -0.0891  0.4475  0.0311  -1.7478   0.0000   0.7749
   4.000   0.4144   0.01631   0.00812  -0.0923  0.4182  0.0274  -1.3327   0.0000   0.4612
   5.000   0.5304   0.01459   0.00638  -0.0921  0.4080  0.0393  -1.1581   0.0000   0.4115
   6.000   0.6523   0.01344   0.00582  -0.0933  0.3960  0.3141  -1.2790   0.0000   0.3801
   7.000   0.7652   0.01473   0.00821  -0.0924  0.3856  0.8147  -1.3929   0.0000   0.3569
   8.000   0.8415   0.01619   0.00980  -0.0818  0.3794  0.8349  -1.4975   0.0000   0.3320
   9.000   0.9409   0.01742   0.01096  -0.0778  0.3699  0.8516  -1.6302   0.0000   0.3161
  10.000   1.0269   0.01785   0.01135  -0.0714  0.3601  0.8637  -1.7668   0.0000   0.3015
  11.000   1.1200   0.01929   0.01299  -0.0675  0.3504  0.8762  -1.9315   0.0000   0.2908
  12.000   1.2099   0.01951   0.01336  -0.0629  0.3401  0.8923  -2.1170   0.0000   0.2808
  13.000   1.3355   0.02051   0.01431  -0.0675  0.3274  0.8859  -2.4031   0.0000   0.2775
  14.000   1.4429   0.02139   0.01556  -0.0687  0.3144  0.8819  -2.7512   0.0000   0.2727
  15.000   1.5556   0.02100   0.01516  -0.0709  0.2952  0.8783  -3.1296   0.0000   0.2685
  16.000   1.6633   0.02165   0.01626  -0.0730  0.2763  0.8747  -3.5208   0.0000   0.2646
  17.000   1.7649   0.02291   0.01774  -0.0750  0.2494  0.8715  -3.9542   0.0000   0.2608
  19.000   1.8094   0.04023   0.03543  -0.0776  0.1704  0.8675  -4.4327   0.0000   0.2565
  20.000   1.7224   0.06170   0.05717  -0.0826  0.1492  0.8676  -4.3501   0.0000   0.2592
  21.000   1.6520   0.08392   0.07959  -0.0894  0.1273  0.8681  -4.2892   0.0000   0.2631
  22.000   1.6035   0.10463   0.10042  -0.0972  0.1063  0.8689  -4.2731   0.0000   0.2674
  23.000   1.5739   0.12359   0.11949  -0.1055  0.0891  0.8705  -4.3284   0.0000   0.2715
  24.000   1.5584   0.14079   0.13686  -0.1143  0.0774  0.8728  -4.4515   0.0000   0.2753
  25.000   1.5614   0.15488   0.15125  -0.1226  0.0693  0.8754  -4.7696   0.0000   0.2779


