XFLR5 v6.09.05 beta

 Calculated polar for: -20S1223

 1 1 Reynolds number fixed          Mach number fixed         

 xtrf =   1.000 (top)        1.000 (bottom)
 Mach =   0.000     Re =     0.015 e 6     Ncrit =   9.000

  alpha     CL        CD       CDp       Cm    Top Xtr Bot Xtr   Cpmin    Chinge    XCp    
 ------- -------- --------- --------- -------- ------- ------- -------- --------- ---------
   0.000   0.0259   0.08187   0.07424  -0.0172  1.0000  0.9883  -0.7825   0.0000   0.9542
   1.000  -0.1410   0.09325   0.08619   0.0161  1.0000  0.8628  -0.8964   0.0000   0.3523
   2.000  -0.2646   0.09475   0.08812   0.0328  1.0000  0.7434  -1.0093   0.0000   0.3666
   3.000  -0.3878   0.09276   0.08652   0.0455  1.0000  0.6539  -1.1417   0.0000   0.3614
   4.000  -0.3734   0.08482   0.07813   0.0131  1.0000  0.4808  -1.2671   0.0000   0.2799
   5.000  -0.1854   0.07665   0.06815  -0.0368  1.0000  0.3547  -1.2641   0.0000   0.0468
   6.000  -0.0588   0.07108   0.06139  -0.0546  1.0000  0.3757  -1.1409   0.0000  -0.6778
   7.000   0.0670   0.07004   0.05894  -0.0675  1.0000  0.4365  -1.1130   0.0000   1.2419
   8.000   0.1328   0.06570   0.05489  -0.0600  1.0000  1.0000  -1.3649   0.0000   0.6886
   9.000   0.2012   0.07273   0.05919  -0.0616  1.0000  1.0000  -1.1506   0.0000   0.5427
  10.000   0.2626   0.08043   0.06556  -0.0639  1.0000  1.0000  -0.8573   0.0000   0.4795
  11.000   0.3212   0.08888   0.07302  -0.0667  1.0000  1.0000  -0.6403   0.0000   0.4434
  12.000   0.3771   0.09806   0.08163  -0.0701  1.0000  1.0000  -0.6752   0.0000   0.4207
  13.000   0.4309   0.10802   0.09126  -0.0741  1.0000  1.0000  -0.7113   0.0000   0.4058
  14.000   0.4828   0.11874   0.10182  -0.0787  1.0000  1.0000  -0.7533   0.0000   0.3957
  15.000   0.5327   0.13012   0.11316  -0.0838  1.0000  1.0000  -0.7929   0.0000   0.3890
  16.000   0.6241   0.14728   0.13047  -0.0990  0.9337  1.0000  -0.8747   0.0000   0.3891
  17.000   0.7102   0.16647   0.14991  -0.1099  0.8205  1.0000  -0.9754   0.0000   0.3841
  18.000   0.7653   0.18257   0.16648  -0.1151  0.7410  1.0000  -1.0532   0.0000   0.3782
  19.000   0.7988   0.19424   0.17844  -0.1185  0.6928  1.0000  -1.0970   0.0000   0.3748
  20.000   0.8463   0.21183   0.19642  -0.1243  0.6422  1.0000  -1.1425   0.0000   0.3718
  21.000   0.8870   0.23014   0.21509  -0.1298  0.5984  1.0000  -1.1884   0.0000   0.3697
  22.000   0.9207   0.24478   0.23054  -0.1354  0.5622  1.0000  -1.2178   0.0000   0.3688
  23.000   0.9486   0.25697   0.24313  -0.1407  0.5235  1.0000  -1.2248   0.0000   0.3683
  24.000   0.9922   0.28466   0.27133  -0.1476  0.4920  1.0000  -1.2805   0.0000   0.3669
  25.000   1.0288   0.30957   0.29673  -0.1537  0.4571  1.0000  -1.3215   0.0000   0.3657


