XFLR5 v6.09.05 beta

 Calculated polar for: -20S1223

 1 1 Reynolds number fixed          Mach number fixed         

 xtrf =   1.000 (top)        1.000 (bottom)
 Mach =   0.000     Re =     0.125 e 6     Ncrit =   9.000

  alpha     CL        CD       CDp       Cm    Top Xtr Bot Xtr   Cpmin    Chinge    XCp    
 ------- -------- --------- --------- -------- ------- ------- -------- --------- ---------
   0.000  -0.0292   0.07026   0.06504  -0.0640  0.5535  0.0663  -1.2505   0.0000  -1.9431
   1.000   0.0603   0.06154   0.05583  -0.0767  0.5347  0.0852  -1.1799   0.0000   1.5089
   2.000   0.1378   0.04815   0.04234  -0.0827  0.5178  0.1139  -1.0514   0.0000   0.8383
   3.000   0.2781   0.03010   0.02186  -0.0916  0.5017  0.0452  -1.5014   0.0000   0.5694
   4.000   0.3924   0.02682   0.01792  -0.0918  0.4874  0.0635  -1.1532   0.0000   0.4736
   5.000   0.4979   0.02454   0.01562  -0.0893  0.4731  0.0696  -1.0684   0.0000   0.4184
   6.000   0.5934   0.02385   0.01613  -0.0840  0.4602  0.4805  -1.1641   0.0000   0.3796
   7.000   0.6054   0.02741   0.02068  -0.0600  0.4502  0.9099  -1.1970   0.0000   0.3360
   8.000   0.6503   0.03014   0.02348  -0.0475  0.4367  0.9742  -1.2491   0.0000   0.3089
   9.000   0.8482   0.03107   0.02383  -0.0635  0.4240  1.0000  -1.4630   0.0000   0.3095
  10.000   0.7710   0.04708   0.04068  -0.0522  0.3995  1.0000  -1.3525   0.0000   0.3018
  11.000   0.8720   0.04661   0.03997  -0.0467  0.3919  1.0000  -1.5268   0.0000   0.2860
  17.000   0.9448   0.12299   0.11728  -0.0748  0.2456  1.0000  -1.7236   0.0000   0.3038
  18.000   1.0608   0.11950   0.11406  -0.0711  0.2342  1.0000  -2.1152   0.0000   0.2883
  19.000   1.0697   0.13268   0.12745  -0.0774  0.2086  1.0000  -2.1589   0.0000   0.2920
  20.000   1.0801   0.14696   0.14193  -0.0848  0.1839  1.0000  -2.2084   0.0000   0.2964
  21.000   1.0779   0.16544   0.16062  -0.0947  0.1608  1.0000  -2.1711   0.0000   0.3046
  22.000   1.0467   0.19270   0.18808  -0.1103  0.1433  1.0000  -1.8907   0.0000   0.3223
  23.000   1.0892   0.20351   0.19905  -0.1161  0.1309  1.0000  -2.0216   0.0000   0.3209
  24.000   1.0904   0.24641   0.24224  -0.1287  0.1562  1.0000  -1.7672   0.0000   0.3324
  25.000   1.0779   0.25896   0.25504  -0.1454  0.1392  1.0000  -1.6148   0.0000   0.3483


