XFLR5 v6.09.05 beta

 Calculated polar for: -20S1223

 1 1 Reynolds number fixed          Mach number fixed         

 xtrf =   1.000 (top)        1.000 (bottom)
 Mach =   0.000     Re =     0.085 e 6     Ncrit =   9.000

  alpha     CL        CD       CDp       Cm    Top Xtr Bot Xtr   Cpmin    Chinge    XCp    
 ------- -------- --------- --------- -------- ------- ------- -------- --------- ---------
   0.000  -0.0266   0.07904   0.07375  -0.0673  0.5891  0.1123  -1.1155   0.0000  -2.3014
   1.000   0.0346   0.06852   0.06314  -0.0722  0.5714  0.1406  -1.0202   0.0000   2.3263
   2.000   0.1007   0.06011   0.05487  -0.0726  0.5541  0.1774  -0.8801   0.0000   0.9618
   3.000   0.1956   0.05150   0.04590  -0.0781  0.5370  0.2220  -0.8251   0.0000   0.6393
   4.000   0.3666   0.03633   0.02763  -0.0943  0.5245  0.0858  -1.1485   0.0000   0.4981
   5.000   0.4589   0.03633   0.02756  -0.0927  0.5077  0.0903  -0.9586   0.0000   0.4426
   6.000   0.5408   0.03555   0.02840  -0.0841  0.4963  0.5558  -1.0492   0.0000   0.3949
   7.000   0.5013   0.04350   0.03714  -0.0602  0.4872  0.9504  -1.0015   0.0000   0.3588
   8.000   0.5450   0.05420   0.04766  -0.0683  0.4769  1.0000  -0.9870   0.0000   0.3637
   9.000   0.5590   0.06656   0.05983  -0.0694  0.4883  1.0000  -0.9684   0.0000   0.3618
  11.000   0.5810   0.08723   0.08036  -0.0752  0.4770  1.0000  -0.9297   0.0000   0.3656
  12.000   0.7236   0.10041   0.09327  -0.0756  0.4580  1.0000  -1.1230   0.0000   0.3389
  14.000   0.7335   0.11550   0.10844  -0.0789  0.3949  1.0000  -1.1205   0.0000   0.3396
  15.000   0.7489   0.12729   0.12034  -0.0825  0.3708  1.0000  -1.1270   0.0000   0.3413
  16.000   0.8626   0.14508   0.13827  -0.0839  0.3533  1.0000  -1.3580   0.0000   0.3263
  17.000   0.9131   0.15573   0.14905  -0.0855  0.3215  1.0000  -1.4974   0.0000   0.3208
  18.000   0.8683   0.16245   0.15597  -0.0933  0.2968  1.0000  -1.3703   0.0000   0.3339
  19.000   0.8861   0.17546   0.16916  -0.1003  0.2722  1.0000  -1.3635   0.0000   0.3383
  20.000   0.9363   0.19356   0.18746  -0.1050  0.2594  1.0000  -1.4509   0.0000   0.3354
  21.000   1.0047   0.21178   0.20609  -0.1081  0.2331  1.0000  -1.6118   0.0000   0.3285
  22.000   0.9773   0.21696   0.21141  -0.1228  0.2159  1.0000  -1.4107   0.0000   0.3459
  23.000   1.0305   0.23892   0.23359  -0.1270  0.2054  1.0000  -1.5281   0.0000   0.3412
  24.000   1.0439   0.24841   0.24326  -0.1381  0.1854  1.0000  -1.5023   0.0000   0.3484
  25.000   1.0752   0.27222   0.26743  -0.1452  0.1795  1.0000  -1.5558   0.0000   0.3491


