XFLR5 v6.09.05 beta

 Calculated polar for: -20S1223

 1 1 Reynolds number fixed          Mach number fixed         

 xtrf =   1.000 (top)        1.000 (bottom)
 Mach =   0.000     Re =     0.325 e 6     Ncrit =   9.000

  alpha     CL        CD       CDp       Cm    Top Xtr Bot Xtr   Cpmin    Chinge    XCp    
 ------- -------- --------- --------- -------- ------- ------- -------- --------- ---------
   0.000  -0.0411   0.06326   0.05869  -0.0570  0.4808  0.0226  -1.4352   0.0000  -1.1325
   1.000   0.0572   0.04881   0.04382  -0.0751  0.4614  0.0275  -1.5457   0.0000   1.5437
   2.000   0.1645   0.02998   0.02403  -0.0888  0.4483  0.0315  -1.7149   0.0000   0.7770
   3.000   0.2845   0.02654   0.01975  -0.0905  0.4313  0.0442  -1.2519   0.0000   0.5563
   4.000   0.4141   0.01647   0.00826  -0.0922  0.4188  0.0276  -1.3281   0.0000   0.4613
   5.000   0.5300   0.01470   0.00647  -0.0920  0.4088  0.0397  -1.1573   0.0000   0.4115
   6.000   0.6519   0.01352   0.00589  -0.0933  0.3970  0.3169  -1.2781   0.0000   0.3801
   7.000   0.7634   0.01487   0.00833  -0.0920  0.3860  0.8157  -1.3909   0.0000   0.3566
   8.000   0.8396   0.01634   0.00993  -0.0813  0.3801  0.8364  -1.4954   0.0000   0.3317
   9.000   0.9381   0.01739   0.01093  -0.0772  0.3706  0.8533  -1.6271   0.0000   0.3158
  10.000   1.0236   0.01793   0.01142  -0.0705  0.3611  0.8653  -1.7634   0.0000   0.3009
  11.000   1.1186   0.01952   0.01319  -0.0672  0.3509  0.8778  -1.9294   0.0000   0.2906
  12.000   1.2050   0.01964   0.01349  -0.0618  0.3409  0.8939  -2.1106   0.0000   0.2801
  13.000   1.3334   0.02049   0.01428  -0.0672  0.3283  0.8870  -2.3991   0.0000   0.2774
  14.000   1.4412   0.02167   0.01583  -0.0684  0.3150  0.8829  -2.7477   0.0000   0.2725
  15.000   1.5541   0.02117   0.01534  -0.0706  0.2961  0.8794  -3.1263   0.0000   0.2683
  16.000   1.6611   0.02184   0.01644  -0.0726  0.2770  0.8760  -3.5153   0.0000   0.2644
  17.000   1.7623   0.02306   0.01789  -0.0745  0.2504  0.8729  -3.9475   0.0000   0.2606
  18.000   1.8384   0.02681   0.02176  -0.0758  0.2089  0.8703  -4.3307   0.0000   0.2572
  19.000   1.8088   0.04007   0.03528  -0.0771  0.1725  0.8691  -4.4312   0.0000   0.2562
  20.000   1.7213   0.06156   0.05704  -0.0820  0.1510  0.8693  -4.3470   0.0000   0.2589
  21.000   1.6512   0.08373   0.07939  -0.0889  0.1287  0.8698  -4.2868   0.0000   0.2629
  22.000   1.6026   0.10444   0.10023  -0.0967  0.1075  0.8706  -4.2703   0.0000   0.2671
  23.000   1.5722   0.12354   0.11944  -0.1051  0.0898  0.8722  -4.3225   0.0000   0.2713
  24.000   1.5577   0.14063   0.13670  -0.1139  0.0782  0.8744  -4.4494   0.0000   0.2751
  25.000   1.5606   0.15469   0.15105  -0.1222  0.0698  0.8768  -4.7668   0.0000   0.2776


