XFLR5 v6.09.05 beta

 Calculated polar for: -20S1223

 1 1 Reynolds number fixed          Mach number fixed         

 xtrf =   1.000 (top)        1.000 (bottom)
 Mach =   0.000     Re =     0.220 e 6     Ncrit =   9.000

  alpha     CL        CD       CDp       Cm    Top Xtr Bot Xtr   Cpmin    Chinge    XCp    
 ------- -------- --------- --------- -------- ------- ------- -------- --------- ---------
   0.000  -0.0398   0.06505   0.06017  -0.0575  0.5077  0.0328  -1.3697   0.0000  -1.1922
   1.000   0.0450   0.05221   0.04702  -0.0723  0.4889  0.0402  -1.3412   0.0000   1.8328
   2.000   0.1516   0.03734   0.03157  -0.0852  0.4729  0.0506  -1.3289   0.0000   0.7986
   3.000   0.2720   0.02809   0.02130  -0.0914  0.4553  0.0738  -1.1147   0.0000   0.5742
   4.000   0.4074   0.01862   0.01000  -0.0915  0.4439  0.0361  -1.2965   0.0000   0.4635
   5.000   0.5212   0.01725   0.00851  -0.0905  0.4316  0.0477  -1.1356   0.0000   0.4119
   6.000   0.6374   0.01670   0.00893  -0.0909  0.4188  0.3807  -1.2453   0.0000   0.3800
   7.000   0.7174   0.01838   0.01165  -0.0809  0.4100  0.8467  -1.3385   0.0000   0.3491
   8.000   0.7833   0.01980   0.01307  -0.0680  0.4009  0.8805  -1.4316   0.0000   0.3219
   9.000   0.8596   0.02082   0.01392  -0.0592  0.3900  0.8994  -1.5435   0.0000   0.3025
  10.000   0.9522   0.02269   0.01597  -0.0558  0.3812  0.9108  -1.6744   0.0000   0.2910
  11.000   1.0321   0.02337   0.01687  -0.0495  0.3701  0.9251  -1.8210   0.0000   0.2788
  12.000   1.1286   0.02391   0.01730  -0.0467  0.3587  0.9353  -2.0035   0.0000   0.2706
  13.000   1.2327   0.02632   0.02004  -0.0487  0.3455  0.9293  -2.2240   0.0000   0.2670
  14.000   1.3541   0.02664   0.02057  -0.0525  0.3310  0.9238  -2.5738   0.0000   0.2643
  15.000   1.4659   0.02815   0.02232  -0.0560  0.3147  0.9193  -2.9349   0.0000   0.2616
  16.000   1.5874   0.02713   0.02133  -0.0593  0.2932  0.9157  -3.3422   0.0000   0.2584
  17.000   1.6805   0.02814   0.02283  -0.0603  0.2709  0.9142  -3.7406   0.0000   0.2546
  18.000   1.7552   0.03072   0.02571  -0.0611  0.2418  0.9140  -4.1126   0.0000   0.2512
  19.000   1.7430   0.04193   0.03723  -0.0646  0.2106  0.9169  -4.2502   0.0000   0.2509
  20.000   1.6842   0.05967   0.05505  -0.0697  0.1810  0.9184  -4.2432   0.0000   0.2529
  21.000   1.6295   0.07932   0.07487  -0.0764  0.1555  0.9182  -4.2224   0.0000   0.2560
  22.000   1.5979   0.09706   0.09274  -0.0832  0.1328  0.9177  -4.2527   0.0000   0.2589
  23.000   1.5679   0.11597   0.11189  -0.0919  0.1151  0.9172  -4.3010   0.0000   0.2630
  24.000   1.5404   0.13544   0.13172  -0.1022  0.1006  0.9169  -4.3692   0.0000   0.2685
  25.000   1.5255   0.15289   0.14938  -0.1130  0.0870  0.9166  -4.5558   0.0000   0.2737


