XFLR5 v6.09.05 beta

 Calculated polar for: -20S1223

 1 1 Reynolds number fixed          Mach number fixed         

 xtrf =   1.000 (top)        1.000 (bottom)
 Mach =   0.000     Re =     0.295 e 6     Ncrit =   9.000

  alpha     CL        CD       CDp       Cm    Top Xtr Bot Xtr   Cpmin    Chinge    XCp    
 ------- -------- --------- --------- -------- ------- ------- -------- --------- ---------
   1.000   0.0656   0.04916   0.04405  -0.0768  0.4694  0.0282  -1.5833   0.0000   1.4036
   2.000   0.1585   0.03308   0.02734  -0.0870  0.4529  0.0345  -1.5230   0.0000   0.7859
   3.000   0.2828   0.02358   0.01666  -0.0924  0.4380  0.0498  -1.2987   0.0000   0.5651
   4.000   0.4128   0.01730   0.00889  -0.0920  0.4218  0.0288  -1.3172   0.0000   0.4616
   5.000   0.5278   0.01542   0.00707  -0.0916  0.4141  0.0416  -1.1520   0.0000   0.4116
   6.000   0.6495   0.01410   0.00651  -0.0929  0.4024  0.3363  -1.2713   0.0000   0.3802
   7.000   0.7507   0.01532   0.00868  -0.0887  0.3915  0.8214  -1.3798   0.0000   0.3543
   8.000   0.8313   0.01750   0.01094  -0.0794  0.3841  0.8460  -1.4842   0.0000   0.3303
   9.000   0.9125   0.01813   0.01163  -0.0711  0.3756  0.8636  -1.6014   0.0000   0.3114
  10.000   1.0094   0.01892   0.01239  -0.0673  0.3660  0.8760  -1.7457   0.0000   0.2988
  11.000   1.1075   0.02083   0.01436  -0.0651  0.3534  0.8875  -1.9132   0.0000   0.2894
  12.000   1.1834   0.02078   0.01455  -0.0573  0.3453  0.9037  -2.0806   0.0000   0.2773
  13.000   1.3043   0.02128   0.01509  -0.0609  0.3330  0.8972  -2.3471   0.0000   0.2738
  14.000   1.4249   0.02254   0.01658  -0.0655  0.3182  0.8911  -2.7145   0.0000   0.2711
  15.000   1.5444   0.02250   0.01669  -0.0691  0.3008  0.8862  -3.1027   0.0000   0.2677
  16.000   1.6474   0.02326   0.01780  -0.0701  0.2811  0.8831  -3.4812   0.0000   0.2633
  17.000   1.7470   0.02421   0.01897  -0.0717  0.2557  0.8810  -3.9086   0.0000   0.2595
  18.000   1.8253   0.02736   0.02235  -0.0729  0.2187  0.8793  -4.2956   0.0000   0.2559
  19.000   1.7965   0.04018   0.03542  -0.0740  0.1844  0.8790  -4.3973   0.0000   0.2548
  20.000   1.7143   0.06094   0.05641  -0.0791  0.1604  0.8797  -4.3275   0.0000   0.2574
  21.000   1.6472   0.08252   0.07814  -0.0859  0.1365  0.8803  -4.2753   0.0000   0.2612
  22.000   1.5973   0.10337   0.09911  -0.0938  0.1145  0.8810  -4.2526   0.0000   0.2655
  23.000   1.5652   0.12280   0.11868  -0.1025  0.0959  0.8820  -4.2989   0.0000   0.2700
  24.000   1.5522   0.13969   0.13581  -0.1113  0.0824  0.8829  -4.4306   0.0000   0.2738
  25.000   1.5545   0.15367   0.14994  -0.1196  0.0724  0.8838  -4.7395   0.0000   0.2763


