XFLR5 v6.09.05 beta

 Calculated polar for: -20S1223

 1 1 Reynolds number fixed          Mach number fixed         

 xtrf =   1.000 (top)        1.000 (bottom)
 Mach =   0.000     Re =     0.080 e 6     Ncrit =   9.000

  alpha     CL        CD       CDp       Cm    Top Xtr Bot Xtr   Cpmin    Chinge    XCp    
 ------- -------- --------- --------- -------- ------- ------- -------- --------- ---------
   0.000  -0.0254   0.07933   0.07405  -0.0573  0.5968  0.1198  -0.9808   0.0000  -2.0307
   1.000   0.0276   0.07009   0.06493  -0.0657  0.5773  0.1470  -0.9430   0.0000   2.6275
   3.000   0.2518   0.04070   0.03294  -0.0951  0.5445  0.0669  -1.4397   0.0000   0.6198
   4.000   0.3648   0.03662   0.02782  -0.0949  0.5319  0.0890  -1.1613   0.0000   0.5014
   5.000   0.4512   0.03873   0.02998  -0.0942  0.5158  0.0946  -0.9387   0.0000   0.4497
   6.000   0.5262   0.04075   0.03348  -0.0892  0.5024  0.4820  -0.9974   0.0000   0.4095
   7.000   0.5864   0.04293   0.03598  -0.0723  0.4940  1.0000  -1.0758   0.0000   0.3620
   8.000   0.5549   0.05518   0.04838  -0.0689  0.4866  1.0000  -0.9972   0.0000   0.3625
   9.000   0.5964   0.06670   0.05961  -0.0692  0.4914  1.0000  -1.0198   0.0000   0.3536
  11.000   0.6490   0.09131   0.08412  -0.0769  0.4948  1.0000  -1.0194   0.0000   0.3545
  12.000   0.6586   0.09765   0.09039  -0.0770  0.4623  1.0000  -1.0210   0.0000   0.3518
  13.000   0.6771   0.10664   0.09938  -0.0783  0.4319  1.0000  -1.0362   0.0000   0.3493
  14.000   0.7070   0.11732   0.11008  -0.0806  0.4047  1.0000  -1.0642   0.0000   0.3465
  15.000   0.8443   0.13674   0.12961  -0.0821  0.3872  1.0000  -1.3044   0.0000   0.3277
  16.000   0.8590   0.14267   0.13566  -0.0843  0.3555  1.0000  -1.3506   0.0000   0.3271
  17.000   0.8319   0.15129   0.14445  -0.0895  0.3282  1.0000  -1.2943   0.0000   0.3356
  18.000   0.8448   0.16461   0.15794  -0.0959  0.3071  1.0000  -1.2948   0.0000   0.3405
  19.000   0.9133   0.18302   0.17654  -0.0991  0.2892  1.0000  -1.4230   0.0000   0.3335
  20.000   0.9777   0.19985   0.19378  -0.1026  0.2612  1.0000  -1.5708   0.0000   0.3277
  21.000   0.9621   0.20333   0.19742  -0.1127  0.2374  1.0000  -1.4699   0.0000   0.3388
  23.000   1.0615   0.24775   0.24230  -0.1238  0.2065  1.0000  -1.6394   0.0000   0.3340
  24.000   1.0315   0.25007   0.24474  -0.1405  0.1918  1.0000  -1.4353   0.0000   0.3528
  25.000   1.1091   0.28387   0.27901  -0.1410  0.1809  1.0000  -1.6975   0.0000   0.3406


