XFLR5 v6.09.05 beta

 Calculated polar for: -20S1223

 1 1 Reynolds number fixed          Mach number fixed         

 xtrf =   1.000 (top)        1.000 (bottom)
 Mach =   0.000     Re =     0.140 e 6     Ncrit =   9.000

  alpha     CL        CD       CDp       Cm    Top Xtr Bot Xtr   Cpmin    Chinge    XCp    
 ------- -------- --------- --------- -------- ------- ------- -------- --------- ---------
   0.000  -0.0305   0.07027   0.06510  -0.0578  0.5427  0.0588  -1.1706   0.0000  -1.6474
   1.000   0.0415   0.05700   0.05159  -0.0717  0.5256  0.0688  -1.1850   0.0000   1.9607
   2.000   0.1377   0.04567   0.03994  -0.0816  0.5076  0.0926  -1.0703   0.0000   0.8300
   3.000   0.2451   0.03776   0.03143  -0.0868  0.4907  0.1455  -0.8979   0.0000   0.5923
   4.000   0.3962   0.02396   0.01516  -0.0917  0.4773  0.0559  -1.1966   0.0000   0.4709
   5.000   0.5063   0.02241   0.01335  -0.0894  0.4644  0.0636  -1.0924   0.0000   0.4153
   6.000   0.6026   0.02239   0.01465  -0.0853  0.4514  0.4487  -1.1794   0.0000   0.3794
   7.000   0.6310   0.02471   0.01798  -0.0636  0.4408  0.8949  -1.2327   0.0000   0.3376
   8.000   0.6740   0.02558   0.01872  -0.0473  0.4309  0.9536  -1.3003   0.0000   0.3056
   9.000   0.7641   0.02823   0.02125  -0.0441  0.4187  0.9803  -1.4100   0.0000   0.2920
  10.000   0.8805   0.03350   0.02683  -0.0515  0.4014  0.9955  -1.5372   0.0000   0.2918
  11.000   0.9866   0.03420   0.02732  -0.0502  0.3915  1.0000  -1.7127   0.0000   0.2826
  12.000   0.9033   0.05410   0.04794  -0.0477  0.3613  1.0000  -1.5850   0.0000   0.2837
  13.000   1.0545   0.04698   0.04070  -0.0412  0.3572  1.0000  -1.8940   0.0000   0.2677
  16.000   0.9895   0.09850   0.09287  -0.0644  0.2678  1.0000  -1.8461   0.0000   0.2901
  18.000   1.1033   0.10982   0.10464  -0.0675  0.2327  1.0000  -2.2689   0.0000   0.2816
  20.000   1.1364   0.13378   0.12901  -0.0795  0.1839  1.0000  -2.4574   0.0000   0.2865
  23.000   1.0763   0.20533   0.20112  -0.1185  0.1231  1.0000  -1.9510   0.0000   0.3249
  24.000   1.0524   0.24003   0.23606  -0.1362  0.1428  1.0000  -1.5832   0.0000   0.3448
  25.000   1.1163   0.25918   0.25554  -0.1366  0.1334  1.0000  -1.8666   0.0000   0.3344


