XFLR5 v6.09.05 beta

 Calculated polar for: -20S1223

 1 1 Reynolds number fixed          Mach number fixed         

 xtrf =   1.000 (top)        1.000 (bottom)
 Mach =   0.000     Re =     0.305 e 6     Ncrit =   9.000

  alpha     CL        CD       CDp       Cm    Top Xtr Bot Xtr   Cpmin    Chinge    XCp    
 ------- -------- --------- --------- -------- ------- ------- -------- --------- ---------
   0.000  -0.0390   0.06361   0.05897  -0.0576  0.4847  0.0248  -1.4331   0.0000  -1.2208
   1.000   0.0640   0.04925   0.04418  -0.0762  0.4669  0.0281  -1.5651   0.0000   1.4239
   2.000   0.1602   0.03204   0.02625  -0.0876  0.4514  0.0333  -1.5809   0.0000   0.7836
   3.000   0.2843   0.02319   0.01620  -0.0926  0.4360  0.0487  -1.3244   0.0000   0.5639
   4.000   0.4133   0.01733   0.00901  -0.0921  0.4209  0.0282  -1.3016   0.0000   0.4615
   5.000   0.5286   0.01516   0.00685  -0.0918  0.4123  0.0410  -1.1538   0.0000   0.4115
   6.000   0.6504   0.01387   0.00628  -0.0930  0.4006  0.3303  -1.2738   0.0000   0.3801
   7.000   0.7549   0.01543   0.00882  -0.0900  0.3879  0.8194  -1.3822   0.0000   0.3553
   8.000   0.8335   0.01706   0.01056  -0.0799  0.3828  0.8428  -1.4876   0.0000   0.3307
   9.000   0.9208   0.01781   0.01133  -0.0731  0.3739  0.8599  -1.6098   0.0000   0.3129
  10.000   1.0131   0.01850   0.01199  -0.0681  0.3645  0.8724  -1.7510   0.0000   0.2993
  11.000   1.1143   0.02086   0.01444  -0.0663  0.3526  0.8840  -1.9219   0.0000   0.2900
  12.000   1.1891   0.02034   0.01414  -0.0584  0.3438  0.9004  -2.0890   0.0000   0.2780
  13.000   1.3146   0.02087   0.01468  -0.0631  0.3315  0.8936  -2.3656   0.0000   0.2751
  14.000   1.4350   0.02226   0.01633  -0.0676  0.3170  0.8875  -2.7334   0.0000   0.2722
  15.000   1.5465   0.02221   0.01639  -0.0692  0.2994  0.8836  -3.1091   0.0000   0.2677
  16.000   1.6523   0.02271   0.01728  -0.0710  0.2797  0.8810  -3.4933   0.0000   0.2637
  17.000   1.7521   0.02378   0.01857  -0.0726  0.2540  0.8784  -3.9217   0.0000   0.2598
  18.000   1.8304   0.02705   0.02208  -0.0738  0.2160  0.8764  -4.3095   0.0000   0.2563
  19.000   1.7975   0.04037   0.03557  -0.0749  0.1805  0.8757  -4.4002   0.0000   0.2553
  20.000   1.7136   0.06138   0.05679  -0.0800  0.1565  0.8763  -4.3253   0.0000   0.2580
  21.000   1.6476   0.08293   0.07851  -0.0868  0.1331  0.8769  -4.2765   0.0000   0.2617
  22.000   1.5987   0.10370   0.09942  -0.0947  0.1115  0.8778  -4.2574   0.0000   0.2660
  23.000   1.5668   0.12306   0.11888  -0.1034  0.0924  0.8790  -4.3040   0.0000   0.2705
  24.000   1.5546   0.13996   0.13607  -0.1122  0.0810  0.8806  -4.4392   0.0000   0.2742
  25.000   1.5569   0.15403   0.15033  -0.1206  0.0716  0.8819  -4.7502   0.0000   0.2768


