XFLR5 v6.09.05 beta

 Calculated polar for: -20S1223

 1 1 Reynolds number fixed          Mach number fixed         

 xtrf =   1.000 (top)        1.000 (bottom)
 Mach =   0.000     Re =     0.010 e 6     Ncrit =   9.000

  alpha     CL        CD       CDp       Cm    Top Xtr Bot Xtr   Cpmin    Chinge    XCp    
 ------- -------- --------- --------- -------- ------- ------- -------- --------- ---------
   0.000  -0.0796   0.09365   0.08401   0.0045  1.0000  0.8583  -0.9295   0.0000   0.2870
   1.000  -0.1945   0.09802   0.08892   0.0214  1.0000  0.7629  -1.0383   0.0000   0.3507
   2.000  -0.3189   0.09882   0.09031   0.0370  1.0000  0.6862  -1.1700   0.0000   0.3597
   3.000  -0.3847   0.09383   0.08561   0.0395  1.0000  0.6208  -1.2694   0.0000   0.3471
   4.000  -0.3820   0.08503   0.07668   0.0264  1.0000  0.5683  -1.3294   0.0000   0.3139
   5.000  -0.2605   0.07612   0.06661  -0.0073  1.0000  0.5332  -1.2838   0.0000   0.2175
   6.000  -0.0967   0.06992   0.05882  -0.0377  1.0000  0.5574  -1.1856   0.0000  -0.1405
   7.000  -0.0303   0.06456   0.05511  -0.0334  1.0000  0.7248  -1.2454   0.0000  -0.8351
   8.000   0.1308   0.06959   0.05452  -0.0565  1.0000  1.0000  -1.3830   0.0000   0.6683
   9.000   0.1962   0.07628   0.05882  -0.0583  1.0000  1.0000  -1.1195   0.0000   0.5334
  10.000   0.2566   0.08365   0.06470  -0.0604  1.0000  1.0000  -0.8289   0.0000   0.4713
  11.000   0.3144   0.09172   0.07163  -0.0630  1.0000  1.0000  -0.6496   0.0000   0.4357
  12.000   0.3697   0.10049   0.07971  -0.0662  1.0000  1.0000  -0.6833   0.0000   0.4134
  13.000   0.4227   0.10993   0.08875  -0.0698  1.0000  1.0000  -0.7216   0.0000   0.3986
  14.000   0.4739   0.12007   0.09870  -0.0741  1.0000  1.0000  -0.7625   0.0000   0.3887
  15.000   0.5232   0.13085   0.10941  -0.0789  1.0000  1.0000  -0.8012   0.0000   0.3821
  16.000   0.5707   0.14227   0.12092  -0.0843  1.0000  1.0000  -0.8485   0.0000   0.3778
  17.000   0.6167   0.15435   0.13322  -0.0902  1.0000  1.0000  -0.8995   0.0000   0.3752
  18.000   0.6610   0.16710   0.14651  -0.0968  1.0000  1.0000  -0.9446   0.0000   0.3739
  19.000   0.7039   0.18056   0.16034  -0.1038  1.0000  1.0000  -1.0006   0.0000   0.3735
  20.000   0.7612   0.19824   0.17852  -0.1156  0.9782  1.0000  -1.0546   0.0000   0.3762
  21.000   0.8383   0.21908   0.19999  -0.1299  0.8464  1.0000  -1.1185   0.0000   0.3780
  22.000   0.8949   0.24464   0.22613  -0.1388  0.7634  1.0000  -1.1819   0.0000   0.3763
  23.000   0.9271   0.25816   0.24071  -0.1438  0.7080  1.0000  -1.2008   0.0000   0.3746
  24.000   0.9552   0.27330   0.25634  -0.1492  0.6651  1.0000  -1.2198   0.0000   0.3739
  25.000   0.9808   0.28825   0.27186  -0.1545  0.6227  1.0000  -1.2447   0.0000   0.3734


