XFLR5 v6.09.05 beta

 Calculated polar for: -20S1223

 1 1 Reynolds number fixed          Mach number fixed         

 xtrf =   1.000 (top)        1.000 (bottom)
 Mach =   0.000     Re =     0.210 e 6     Ncrit =   9.000

  alpha     CL        CD       CDp       Cm    Top Xtr Bot Xtr   Cpmin    Chinge    XCp    
 ------- -------- --------- --------- -------- ------- ------- -------- --------- ---------
   0.000  -0.0390   0.06607   0.06116  -0.0562  0.5107  0.0349  -1.3051   0.0000  -1.1896
   1.000   0.0637   0.05321   0.04777  -0.0765  0.4914  0.0440  -1.4068   0.0000   1.4339
   2.000   0.1492   0.03880   0.03308  -0.0842  0.4761  0.0533  -1.2684   0.0000   0.8010
   3.000   0.2708   0.02897   0.02215  -0.0912  0.4573  0.0771  -1.0973   0.0000   0.5748
   4.000   0.4065   0.01913   0.01046  -0.0915  0.4471  0.0373  -1.2859   0.0000   0.4639
   5.000   0.5200   0.01763   0.00888  -0.0904  0.4347  0.0493  -1.1315   0.0000   0.4121
   6.000   0.6347   0.01726   0.00944  -0.0904  0.4208  0.3875  -1.2402   0.0000   0.3799
   8.000   0.7773   0.02044   0.01368  -0.0670  0.4037  0.8861  -1.4223   0.0000   0.3212
   9.000   0.8521   0.02100   0.01408  -0.0575  0.3936  0.9067  -1.5350   0.0000   0.3011
  10.000   0.9462   0.02351   0.01672  -0.0549  0.3835  0.9162  -1.6653   0.0000   0.2904
  11.000   1.0175   0.02420   0.01770  -0.0469  0.3725  0.9323  -1.8019   0.0000   0.2770
  12.000   1.1203   0.02482   0.01823  -0.0456  0.3609  0.9407  -1.9897   0.0000   0.2700
  13.000   1.2207   0.02731   0.02099  -0.0468  0.3476  0.9359  -2.2040   0.0000   0.2659
  14.000   1.3339   0.02792   0.02192  -0.0495  0.3327  0.9310  -2.5334   0.0000   0.2627
  15.000   1.4455   0.02911   0.02324  -0.0524  0.3171  0.9267  -2.8939   0.0000   0.2598
  16.000   1.5658   0.02784   0.02213  -0.0557  0.2965  0.9233  -3.2960   0.0000   0.2568
  17.000   1.6621   0.02900   0.02373  -0.0577  0.2734  0.9216  -3.6945   0.0000   0.2535
  18.000   1.7356   0.03155   0.02659  -0.0585  0.2456  0.9220  -4.0616   0.0000   0.2501
  19.000   1.7233   0.04281   0.03814  -0.0622  0.2155  0.9253  -4.1966   0.0000   0.2501
  20.000   1.6631   0.06111   0.05663  -0.0681  0.1867  0.9261  -4.1824   0.0000   0.2526
  21.000   1.6160   0.07976   0.07532  -0.0746  0.1591  0.9255  -4.1839   0.0000   0.2554
  22.000   1.5841   0.09777   0.09348  -0.0818  0.1362  0.9248  -4.2076   0.0000   0.2585
  23.000   1.5518   0.11727   0.11334  -0.0907  0.1193  0.9240  -4.2374   0.0000   0.2631
  24.000   1.5290   0.13580   0.13216  -0.1005  0.1044  0.9234  -4.3123   0.0000   0.2680
  25.000   1.5226   0.15169   0.14817  -0.1106  0.0899  0.9230  -4.5373   0.0000   0.2723


