XFLR5 v6.09.05 beta

 Calculated polar for: -20S1223

 1 1 Reynolds number fixed          Mach number fixed         

 xtrf =   1.000 (top)        1.000 (bottom)
 Mach =   0.000     Re =     0.090 e 6     Ncrit =   9.000

  alpha     CL        CD       CDp       Cm    Top Xtr Bot Xtr   Cpmin    Chinge    XCp    
 ------- -------- --------- --------- -------- ------- ------- -------- --------- ---------
   0.000  -0.0244   0.07750   0.07229  -0.0583  0.5813  0.1037  -1.0157   0.0000  -2.1600
   1.000   0.0304   0.06700   0.06165  -0.0651  0.5664  0.1253  -0.9662   0.0000   2.3798
   2.000   0.1115   0.05841   0.05302  -0.0768  0.5471  0.1721  -0.9136   0.0000   0.9284
   3.000   0.2022   0.04916   0.04341  -0.0783  0.5321  0.2153  -0.8415   0.0000   0.6269
   4.000   0.3689   0.03489   0.02634  -0.0942  0.5167  0.0837  -1.1504   0.0000   0.4962
   5.000   0.4690   0.03345   0.02455  -0.0909  0.5026  0.0869  -0.9868   0.0000   0.4340
   6.000   0.5467   0.03423   0.02697  -0.0836  0.4903  0.5349  -1.0644   0.0000   0.3921
   7.000   0.5097   0.04323   0.03704  -0.0632  0.4782  0.9356  -1.0052   0.0000   0.3626
   8.000   0.6352   0.04616   0.03925  -0.0664  0.4628  1.0000  -1.1298   0.0000   0.3421
   9.000   0.6470   0.05641   0.04940  -0.0620  0.4541  1.0000  -1.1307   0.0000   0.3323
  10.000   0.6553   0.07046   0.06352  -0.0661  0.4597  1.0000  -1.1004   0.0000   0.3370
  11.000   0.6028   0.08562   0.07888  -0.0738  0.4666  1.0000  -0.9678   0.0000   0.3584
  12.000   0.6353   0.09494   0.08812  -0.0751  0.4391  1.0000  -0.9954   0.0000   0.3529
  13.000   0.7862   0.11032   0.10332  -0.0746  0.4218  1.0000  -1.2271   0.0000   0.3278
  15.000   0.7750   0.12512   0.11833  -0.0806  0.3613  1.0000  -1.1890   0.0000   0.3346
  16.000   0.7913   0.13701   0.13043  -0.0846  0.3355  1.0000  -1.2126   0.0000   0.3364
  17.000   0.8844   0.15439   0.14792  -0.0868  0.3206  1.0000  -1.4255   0.0000   0.3255
  18.000   0.9510   0.15035   0.14393  -0.0843  0.2631  1.0000  -1.6659   0.0000   0.3129
  19.000   0.9553   0.16321   0.15698  -0.0911  0.2365  1.0000  -1.6501   0.0000   0.3184
  20.000   0.9270   0.18672   0.18077  -0.1053  0.2410  1.0000  -1.4409   0.0000   0.3368
  21.000   0.9784   0.20728   0.20174  -0.1102  0.2321  1.0000  -1.5272   0.0000   0.3339
  23.000   1.0070   0.23167   0.22646  -0.1311  0.1936  1.0000  -1.4357   0.0000   0.3485
  24.000   1.0732   0.25193   0.24700  -0.1330  0.1819  1.0000  -1.6381   0.0000   0.3393
  25.000   1.0601   0.26630   0.26149  -0.1488  0.1685  1.0000  -1.4814   0.0000   0.3547


