XFLR5 v6.09.05 beta

 Calculated polar for: -20S1223

 1 1 Reynolds number fixed          Mach number fixed         

 xtrf =   1.000 (top)        1.000 (bottom)
 Mach =   0.000     Re =     0.315 e 6     Ncrit =   9.000

  alpha     CL        CD       CDp       Cm    Top Xtr Bot Xtr   Cpmin    Chinge    XCp    
 ------- -------- --------- --------- -------- ------- ------- -------- --------- ---------
   0.000  -0.0404   0.06347   0.05887  -0.0571  0.4827  0.0236  -1.4287   0.0000  -1.1591
   1.000   0.0618   0.04924   0.04421  -0.0757  0.4642  0.0280  -1.5503   0.0000   1.4560
   2.000   0.1623   0.03096   0.02511  -0.0882  0.4499  0.0323  -1.6468   0.0000   0.7806
   3.000   0.2855   0.02303   0.01598  -0.0926  0.4339  0.0475  -1.3438   0.0000   0.5625
   4.000   0.4137   0.01685   0.00858  -0.0922  0.4199  0.0279  -1.3171   0.0000   0.4614
   5.000   0.5293   0.01492   0.00666  -0.0919  0.4105  0.0404  -1.1556   0.0000   0.4115
   6.000   0.6512   0.01368   0.00607  -0.0931  0.3988  0.3239  -1.2761   0.0000   0.3801
   7.000   0.6708   0.01594   0.00984  -0.0665  0.3882  0.7219  -1.3275   0.0000   0.3350
   9.000   0.9297   0.01754   0.01108  -0.0752  0.3722  0.8565  -1.6187   0.0000   0.3144
  10.000   1.0178   0.01817   0.01166  -0.0692  0.3629  0.8688  -1.7569   0.0000   0.3000
  11.000   1.1163   0.02006   0.01369  -0.0668  0.3518  0.8810  -1.9255   0.0000   0.2903
  12.000   1.1961   0.01996   0.01379  -0.0599  0.3423  0.8971  -2.0988   0.0000   0.2789
  13.000   1.3250   0.02058   0.01438  -0.0654  0.3300  0.8901  -2.3840   0.0000   0.2764
  14.000   1.4388   0.02212   0.01624  -0.0681  0.3160  0.8849  -2.7419   0.0000   0.2724
  15.000   1.5508   0.02161   0.01579  -0.0700  0.2978  0.8816  -3.1187   0.0000   0.2680
  16.000   1.6567   0.02225   0.01683  -0.0718  0.2784  0.8786  -3.5044   0.0000   0.2641
  17.000   1.7571   0.02340   0.01821  -0.0735  0.2522  0.8757  -3.9345   0.0000   0.2602
  18.000   1.8348   0.02686   0.02185  -0.0748  0.2129  0.8734  -4.3213   0.0000   0.2567
  19.000   1.8047   0.04004   0.03527  -0.0760  0.1769  0.8723  -4.4202   0.0000   0.2557
  20.000   1.7179   0.06141   0.05688  -0.0810  0.1541  0.8727  -4.3376   0.0000   0.2584
  21.000   1.6492   0.08337   0.07901  -0.0879  0.1313  0.8733  -4.2810   0.0000   0.2623
  22.000   1.6006   0.10409   0.09987  -0.0957  0.1097  0.8742  -4.2637   0.0000   0.2666
  23.000   1.5690   0.12338   0.11924  -0.1043  0.0912  0.8757  -4.3117   0.0000   0.2709
  24.000   1.5564   0.14026   0.13636  -0.1130  0.0796  0.8777  -4.4454   0.0000   0.2746
  25.000   1.5590   0.15433   0.15066  -0.1214  0.0707  0.8795  -4.7604   0.0000   0.2772


