XFLR5 v6.09.05 beta

 Calculated polar for: -20S1223

 1 1 Reynolds number fixed          Mach number fixed         

 xtrf =   1.000 (top)        1.000 (bottom)
 Mach =   0.000     Re =     0.055 e 6     Ncrit =   9.000

  alpha     CL        CD       CDp       Cm    Top Xtr Bot Xtr   Cpmin    Chinge    XCp    
 ------- -------- --------- --------- -------- ------- ------- -------- --------- ---------
   0.000  -0.0238   0.08868   0.08329  -0.0658  0.6569  0.2028  -0.9449   0.0000  -2.5484
   1.000   0.0200   0.07965   0.07435  -0.0660  0.6394  0.2409  -0.8817   0.0000   3.5683
   2.000   0.0663   0.07190   0.06686  -0.0673  0.6248  0.2846  -0.8301   0.0000   1.2621
   3.000   0.2242   0.05344   0.04614  -0.1006  0.6069  0.1126  -1.2666   0.0000   0.6928
   4.000   0.3315   0.04969   0.04132  -0.1061  0.5966  0.1171  -1.1498   0.0000   0.5630
   5.000   0.4038   0.05129   0.04235  -0.1066  0.5889  0.1228  -0.9858   0.0000   0.5064
   6.000   0.4502   0.05691   0.04813  -0.1040  0.5949  0.1812  -0.9575   0.0000   0.4726
   7.000   0.4289   0.06912   0.06281  -0.1094  0.7055  0.8069  -1.0337   0.0000   0.4967
   9.000   0.4658   0.07952   0.07185  -0.0859  0.6395  1.0000  -0.7850   0.0000   0.4236
  10.000   0.5201   0.08735   0.07919  -0.0848  0.6049  1.0000  -0.8373   0.0000   0.4010
  11.000   0.5710   0.09564   0.08719  -0.0842  0.5698  1.0000  -0.8833   0.0000   0.3842
  12.000   0.6090   0.10389   0.09530  -0.0840  0.5360  1.0000  -0.9195   0.0000   0.3734
  13.000   0.6503   0.11326   0.10459  -0.0846  0.5014  1.0000  -0.9665   0.0000   0.3643
  14.000   0.6796   0.12337   0.11470  -0.0863  0.4724  1.0000  -0.9914   0.0000   0.3600
  15.000   0.7183   0.13463   0.12603  -0.0886  0.4433  1.0000  -1.0404   0.0000   0.3552
  16.000   0.8104   0.15550   0.14710  -0.0929  0.4206  1.0000  -1.1946   0.0000   0.3448
  17.000   0.8561   0.16691   0.15868  -0.0954  0.3888  1.0000  -1.2977   0.0000   0.3401
  18.000   0.8533   0.17268   0.16462  -0.0989  0.3582  1.0000  -1.2875   0.0000   0.3432
  19.000   0.8622   0.18310   0.17524  -0.1057  0.3346  1.0000  -1.2615   0.0000   0.3486
  20.000   0.8971   0.19759   0.18994  -0.1119  0.3146  1.0000  -1.2936   0.0000   0.3493
  21.000   0.9707   0.22493   0.21780  -0.1157  0.2903  1.0000  -1.4373   0.0000   0.3415
  22.000   0.9699   0.22462   0.21767  -0.1253  0.2669  1.0000  -1.3638   0.0000   0.3500
  23.000   0.9932   0.24136   0.23461  -0.1342  0.2562  1.0000  -1.3494   0.0000   0.3543
  25.000   1.0461   0.27306   0.26681  -0.1510  0.2190  1.0000  -1.3970   0.0000   0.3594


