XFLR5 v6.09.05 beta

 Calculated polar for: -20S1223

 1 1 Reynolds number fixed          Mach number fixed         

 xtrf =   1.000 (top)        1.000 (bottom)
 Mach =   0.000     Re =     0.335 e 6     Ncrit =   9.000

  alpha     CL        CD       CDp       Cm    Top Xtr Bot Xtr   Cpmin    Chinge    XCp    
 ------- -------- --------- --------- -------- ------- ------- -------- --------- ---------
   0.000  -0.0416   0.06299   0.05846  -0.0571  0.4790  0.0218  -1.4486   0.0000  -1.1200
   1.000   0.0494   0.04798   0.04304  -0.0746  0.4586  0.0257  -1.5438   0.0000   1.7378
   3.000   0.2942   0.01876   0.01111  -0.0923  0.4304  0.0200  -1.7939   0.0000   0.5526
   4.000   0.4146   0.01615   0.00800  -0.0923  0.4176  0.0273  -1.3368   0.0000   0.4612
   5.000   0.5307   0.01448   0.00630  -0.0921  0.4072  0.0390  -1.1589   0.0000   0.4115
   6.000   0.6528   0.01338   0.00576  -0.0934  0.3950  0.3126  -1.2799   0.0000   0.3802
   7.000   0.7667   0.01462   0.00812  -0.0928  0.3851  0.8136  -1.3947   0.0000   0.3571
   8.000   0.8435   0.01604   0.00966  -0.0823  0.3787  0.8334  -1.4998   0.0000   0.3323
  10.000   1.0305   0.01781   0.01131  -0.0723  0.3590  0.8620  -1.7703   0.0000   0.3021
  11.000   1.1217   0.01908   0.01280  -0.0678  0.3499  0.8745  -1.9338   0.0000   0.2910
  12.000   1.2147   0.01939   0.01325  -0.0640  0.3394  0.8907  -2.1233   0.0000   0.2815
  13.000   1.3362   0.02058   0.01437  -0.0676  0.3265  0.8849  -2.4049   0.0000   0.2775
  14.000   1.4445   0.02113   0.01532  -0.0690  0.3139  0.8809  -2.7546   0.0000   0.2728
  15.000   1.5570   0.02086   0.01502  -0.0712  0.2942  0.8772  -3.1328   0.0000   0.2686
  16.000   1.6656   0.02147   0.01609  -0.0735  0.2756  0.8735  -3.5265   0.0000   0.2648
  17.000   1.7677   0.02276   0.01760  -0.0756  0.2485  0.8701  -3.9610   0.0000   0.2611
  18.000   1.8439   0.02667   0.02161  -0.0771  0.2051  0.8674  -4.3446   0.0000   0.2577
  19.000   1.8094   0.04046   0.03565  -0.0782  0.1684  0.8660  -4.4323   0.0000   0.2568
  20.000   1.7231   0.06190   0.05736  -0.0831  0.1474  0.8661  -4.3518   0.0000   0.2595
  21.000   1.6527   0.08415   0.07981  -0.0899  0.1258  0.8664  -4.2910   0.0000   0.2634
  22.000   1.6042   0.10484   0.10063  -0.0977  0.1050  0.8672  -4.2752   0.0000   0.2676
  23.000   1.5757   0.12362   0.11954  -0.1059  0.0885  0.8688  -4.3343   0.0000   0.2716
  24.000   1.5594   0.14092   0.13698  -0.1146  0.0766  0.8712  -4.4544   0.0000   0.2755
  25.000   1.5621   0.15505   0.15143  -0.1230  0.0688  0.8739  -4.7729   0.0000   0.2781


