XFLR5 v6.09.05 beta

 Calculated polar for: -20S1223

 1 1 Reynolds number fixed          Mach number fixed         

 xtrf =   1.000 (top)        1.000 (bottom)
 Mach =   0.000     Re =     0.235 e 6     Ncrit =   9.000

  alpha     CL        CD       CDp       Cm    Top Xtr Bot Xtr   Cpmin    Chinge    XCp    
 ------- -------- --------- --------- -------- ------- ------- -------- --------- ---------
   0.000  -0.0380   0.06266   0.05776  -0.0622  0.5038  0.0306  -1.5467   0.0000  -1.3862
   1.000   0.0418   0.05144   0.04635  -0.0717  0.4848  0.0358  -1.3575   0.0000   1.9409
   2.000   0.1567   0.03498   0.02901  -0.0870  0.4687  0.0481  -1.4477   0.0000   0.7918
   3.000   0.2751   0.02682   0.01998  -0.0919  0.4519  0.0701  -1.1555   0.0000   0.5724
   4.000   0.4084   0.01794   0.00936  -0.0915  0.4394  0.0343  -1.3134   0.0000   0.4629
   5.000   0.5226   0.01699   0.00826  -0.0907  0.4266  0.0456  -1.1402   0.0000   0.4117
   6.000   0.6408   0.01603   0.00830  -0.0915  0.4154  0.3704  -1.2517   0.0000   0.3800
   7.000   0.7225   0.01748   0.01081  -0.0820  0.4059  0.8401  -1.3468   0.0000   0.3497
   8.000   0.7905   0.01883   0.01210  -0.0694  0.3972  0.8712  -1.4433   0.0000   0.3227
   9.000   0.8770   0.02077   0.01398  -0.0635  0.3860  0.8898  -1.5591   0.0000   0.3060
  10.000   0.9621   0.02160   0.01496  -0.0576  0.3778  0.9018  -1.6882   0.0000   0.2921
  11.000   1.0588   0.02262   0.01609  -0.0547  0.3667  0.9163  -1.8536   0.0000   0.2824
  12.000   1.1378   0.02415   0.01763  -0.0490  0.3537  0.9265  -2.0145   0.0000   0.2722
  13.000   1.2573   0.02522   0.01899  -0.0532  0.3423  0.9199  -2.2618   0.0000   0.2697
  14.000   1.3819   0.02559   0.01944  -0.0572  0.3280  0.9148  -2.6286   0.0000   0.2668
  15.000   1.4825   0.02679   0.02100  -0.0583  0.3118  0.9119  -2.9715   0.0000   0.2627
  16.000   1.5967   0.02608   0.02031  -0.0606  0.2901  0.9090  -3.3647   0.0000   0.2590
  17.000   1.6954   0.02668   0.02133  -0.0623  0.2679  0.9067  -3.7806   0.0000   0.2554
  18.000   1.7719   0.02946   0.02437  -0.0633  0.2370  0.9058  -4.1581   0.0000   0.2520
  19.000   1.7572   0.04091   0.03619  -0.0660  0.2052  0.9084  -4.2911   0.0000   0.2514
  20.000   1.6894   0.06004   0.05554  -0.0717  0.1780  0.9102  -4.2574   0.0000   0.2539
  21.000   1.6326   0.08001   0.07568  -0.0783  0.1530  0.9105  -4.2313   0.0000   0.2571
  22.000   1.5974   0.09837   0.09417  -0.0854  0.1306  0.9105  -4.2504   0.0000   0.2602
  23.000   1.5728   0.11617   0.11206  -0.0934  0.1106  0.9105  -4.3238   0.0000   0.2638
  24.000   1.5526   0.13426   0.13029  -0.1032  0.0940  0.9105  -4.4351   0.0000   0.2684
  25.000   1.5312   0.15327   0.14971  -0.1147  0.0825  0.9106  -4.5988   0.0000   0.2745


