XFLR5 v6.09.05 beta

 Calculated polar for: -25S1223

 1 1 Reynolds number fixed          Mach number fixed         

 xtrf =   1.000 (top)        1.000 (bottom)
 Mach =   0.000     Re =     0.080 e 6     Ncrit =   9.000

  alpha     CL        CD       CDp       Cm    Top Xtr Bot Xtr   Cpmin    Chinge    XCp    
 ------- -------- --------- --------- -------- ------- ------- -------- --------- ---------
   0.000  -0.1792   0.09491   0.09002  -0.0257  0.5871  0.1033  -1.0855   0.0000   0.0975
   1.000  -0.1611   0.08462   0.07983  -0.0330  0.5745  0.1166  -1.1230   0.0000   0.0390
   2.000  -0.1177   0.07564   0.07079  -0.0393  0.5625  0.1432  -1.0890   0.0000  -0.0875
   3.000  -0.0550   0.06753   0.06276  -0.0422  0.5452  0.1821  -0.9684   0.0000  -0.5129
   4.000   0.0195   0.05998   0.05479  -0.0443  0.5351  0.2437  -0.8903   0.0000   2.4700
   5.000   0.1679   0.04459   0.03652  -0.0567  0.5252  0.0779  -1.3608   0.0000   0.5749
   6.000   0.2622   0.04493   0.03640  -0.0583  0.5118  0.0880  -1.0837   0.0000   0.4607
   7.000   0.3246   0.04946   0.04096  -0.0558  0.5103  0.1026  -0.9401   0.0000   0.4105
   8.000   0.3266   0.05648   0.05041  -0.0441  0.5250  0.6051  -0.9876   0.0000   0.3731
  10.000   0.6331   0.08365   0.07676  -0.0752  0.5313  1.0000  -1.0110   0.0000   0.3560
  11.000   0.5791   0.08412   0.07712  -0.0602  0.4989  1.0000  -0.9664   0.0000   0.3399
  12.000   0.5432   0.08906   0.08198  -0.0502  0.4712  1.0000  -0.9339   0.0000   0.3271
  13.000   0.5564   0.09665   0.08944  -0.0443  0.4481  1.0000  -0.9552   0.0000   0.3131
  14.000   0.6458   0.10701   0.09968  -0.0412  0.4262  1.0000  -1.0977   0.0000   0.2956
  15.000   0.6026   0.11052   0.10319  -0.0334  0.3969  1.0000  -1.0501   0.0000   0.2861
  16.000   0.5904   0.11851   0.11120  -0.0288  0.3781  1.0000  -1.0341   0.0000   0.2785
  17.000   0.7063   0.13564   0.12841  -0.0254  0.3563  1.0000  -1.2826   0.0000   0.2636
  18.000   0.6363   0.13418   0.12703  -0.0232  0.3306  1.0000  -1.1673   0.0000   0.2633
  19.000   0.6435   0.14478   0.13776  -0.0266  0.3107  1.0000  -1.1679   0.0000   0.2672
  20.000   0.7250   0.16315   0.15628  -0.0291  0.2924  1.0000  -1.3279   0.0000   0.2641
  21.000   0.7498   0.17055   0.16385  -0.0335  0.2659  1.0000  -1.3613   0.0000   0.2672
  22.000   0.7491   0.17963   0.17308  -0.0421  0.2423  1.0000  -1.2992   0.0000   0.2778


