XFLR5 v6.09.05 beta

 Calculated polar for: -25S1223

 1 1 Reynolds number fixed          Mach number fixed         

 xtrf =   1.000 (top)        1.000 (bottom)
 Mach =   0.000     Re =     0.070 e 6     Ncrit =   9.000

  alpha     CL        CD       CDp       Cm    Top Xtr Bot Xtr   Cpmin    Chinge    XCp    
 ------- -------- --------- --------- -------- ------- ------- -------- --------- ---------
   0.000  -0.1712   0.09628   0.09124  -0.0256  0.6073  0.1233  -1.0300   0.0000   0.0905
   1.000  -0.1587   0.08800   0.08317  -0.0358  0.5956  0.1424  -1.0939   0.0000   0.0172
   2.000  -0.1128   0.07892   0.07419  -0.0412  0.5807  0.1739  -1.0324   0.0000  -0.1197
   3.000  -0.0638   0.07081   0.06590  -0.0392  0.5676  0.2152  -0.9403   0.0000  -0.3636
   4.000   0.0637   0.05403   0.04722  -0.0601  0.5583  0.0827  -1.3973   0.0000   1.1786
   5.000   0.1639   0.04897   0.04120  -0.0647  0.5483  0.0959  -1.3056   0.0000   0.6333
   6.000   0.2577   0.04802   0.03942  -0.0619  0.5378  0.0984  -1.0764   0.0000   0.4792
   7.000   0.3086   0.05558   0.04685  -0.0634  0.5616  0.1095  -0.9688   0.0000   0.4448
   8.000   0.2939   0.06260   0.05423  -0.0636  0.6116  0.1404  -0.9656   0.0000   0.4556
   9.000   0.4438   0.07052   0.06386  -0.0696  0.5791  1.0000  -0.8020   0.0000   0.3956
  10.000   0.4614   0.07722   0.07016  -0.0619  0.5548  1.0000  -0.8260   0.0000   0.3717
  12.000   0.5475   0.09174   0.08413  -0.0510  0.4996  1.0000  -0.9363   0.0000   0.3280
  13.000   0.5374   0.09685   0.08911  -0.0430  0.4692  1.0000  -0.9308   0.0000   0.3136
  14.000   0.5432   0.10456   0.09675  -0.0375  0.4484  1.0000  -0.9447   0.0000   0.3014
  16.000   0.5877   0.11899   0.11110  -0.0277  0.3966  1.0000  -1.0348   0.0000   0.2768
  17.000   0.5883   0.12669   0.11886  -0.0258  0.3718  1.0000  -1.0456   0.0000   0.2724
  18.000   0.6881   0.14756   0.13990  -0.0273  0.3558  1.0000  -1.2485   0.0000   0.2666
  19.000   0.6924   0.15091   0.14338  -0.0288  0.3265  1.0000  -1.2657   0.0000   0.2671
  20.000   0.6819   0.15831   0.15093  -0.0342  0.3022  1.0000  -1.2032   0.0000   0.2749
  21.000   0.7107   0.17201   0.16481  -0.0402  0.2871  1.0000  -1.2124   0.0000   0.2802
  22.000   0.7879   0.19370   0.18691  -0.0442  0.2634  1.0000  -1.3721   0.0000   0.2776
  23.000   0.7860   0.19585   0.18923  -0.0532  0.2410  1.0000  -1.2944   0.0000   0.2880
  24.000   0.8097   0.20923   0.20279  -0.0627  0.2294  1.0000  -1.2639   0.0000   0.2965
  25.000   0.8770   0.23018   0.22403  -0.0673  0.2101  1.0000  -1.4366   0.0000   0.2932


