XFLR5 v6.09.05 beta

 Calculated polar for: -25S1223

 1 1 Reynolds number fixed          Mach number fixed         

 xtrf =   1.000 (top)        1.000 (bottom)
 Mach =   0.000     Re =     0.215 e 6     Ncrit =   9.000

  alpha     CL        CD       CDp       Cm    Top Xtr Bot Xtr   Cpmin    Chinge    XCp    
 ------- -------- --------- --------- -------- ------- ------- -------- --------- ---------
   1.000  -0.1815   0.06838   0.06361  -0.0285  0.4934  0.0320  -1.5377   0.0000   0.0917
   2.000  -0.1122   0.05566   0.05073  -0.0373  0.4796  0.0379  -1.4687   0.0000  -0.0774
   3.000  -0.0211   0.04013   0.03436  -0.0451  0.4656  0.0479  -1.5404   0.0000  -1.8205
   4.000   0.0818   0.03127   0.02470  -0.0467  0.4526  0.0687  -1.2908   0.0000   0.7897
   5.000   0.2040   0.02069   0.01218  -0.0427  0.4414  0.0301  -1.5902   0.0000   0.4408
   6.000   0.3101   0.01901   0.01038  -0.0399  0.4297  0.0462  -1.0095   0.0000   0.3618
   7.000   0.4115   0.01852   0.00992  -0.0360  0.4188  0.0537  -1.1004   0.0000   0.3212
   8.000   0.4919   0.02075   0.01442  -0.0256  0.4093  0.7972  -1.1908   0.0000   0.2851
   9.000   0.5756   0.02449   0.01805  -0.0141  0.4000  0.8471  -1.2938   0.0000   0.2567
  10.000   0.6542   0.02706   0.02056  -0.0048  0.3886  0.8846  -1.4026   0.0000   0.2385
  12.000   1.0720   0.02315   0.01660  -0.0434  0.3622  1.0000  -1.9254   0.0000   0.2697
  14.000   1.2374   0.02622   0.02019  -0.0359  0.3363  1.0000  -2.3610   0.0000   0.2548
  15.000   1.3222   0.02693   0.02106  -0.0322  0.3223  1.0000  -2.6700   0.0000   0.2481
  16.000   1.4009   0.02713   0.02161  -0.0283  0.3060  1.0000  -2.9783   0.0000   0.2419
  18.000   1.3750   0.03153   0.02644   0.0079  0.2760  0.9020  -3.2758   0.0000   0.2116
  19.000   1.4708   0.03525   0.03044  -0.0034  0.2486  0.8898  -3.6582   0.0000   0.2173
  20.000   1.4776   0.04683   0.04220  -0.0137  0.2185  0.8808  -3.8120   0.0000   0.2218
  21.000   1.4581   0.06019   0.05558  -0.0211  0.1887  0.8757  -3.8915   0.0000   0.2246
  22.000   1.4514   0.07311   0.06848  -0.0279  0.1588  0.8716  -3.9975   0.0000   0.2269
  23.000   1.4364   0.08860   0.08410  -0.0362  0.1356  0.8679  -4.0558   0.0000   0.2306
  24.000   1.3990   0.10881   0.10471  -0.0474  0.1202  0.8648  -4.0447   0.0000   0.2372
  25.000   1.3624   0.13019   0.12652  -0.0595  0.1072  0.8619  -4.0130   0.0000   0.2451


