XFLR5 v6.09.05 beta

 Calculated polar for: -25S1223

 1 1 Reynolds number fixed          Mach number fixed         

 xtrf =   1.000 (top)        1.000 (bottom)
 Mach =   0.000     Re =     0.205 e 6     Ncrit =   9.000

  alpha     CL        CD       CDp       Cm    Top Xtr Bot Xtr   Cpmin    Chinge    XCp    
 ------- -------- --------- --------- -------- ------- ------- -------- --------- ---------
   0.000  -0.2237   0.08131   0.07668  -0.0194  0.5131  0.0306  -1.5519   0.0000   0.1588
   1.000  -0.1806   0.06962   0.06482  -0.0270  0.4959  0.0340  -1.4554   0.0000   0.0996
   2.000  -0.0994   0.05655   0.05147  -0.0399  0.4829  0.0427  -1.5194   0.0000  -0.1448
   3.000  -0.0233   0.04190   0.03628  -0.0444  0.4687  0.0500  -1.4454   0.0000  -1.5874
   4.000   0.0795   0.03239   0.02593  -0.0465  0.4554  0.0713  -1.2453   0.0000   0.8024
   5.000   0.2028   0.02108   0.01257  -0.0427  0.4445  0.0314  -1.5822   0.0000   0.4423
   6.000   0.3085   0.01931   0.01070  -0.0397  0.4329  0.0483  -1.0137   0.0000   0.3620
   7.000   0.4095   0.01912   0.01046  -0.0358  0.4212  0.0559  -1.0953   0.0000   0.3212
   8.000   0.4897   0.02179   0.01544  -0.0251  0.4122  0.8046  -1.1849   0.0000   0.2846
   9.000   0.5696   0.02536   0.01894  -0.0134  0.4024  0.8513  -1.2837   0.0000   0.2558
  10.000   0.6588   0.02593   0.01935  -0.0041  0.3908  0.8973  -1.4054   0.0000   0.2376
  12.000   1.0655   0.02429   0.01779  -0.0428  0.3640  1.0000  -1.9125   0.0000   0.2695
  13.000   1.1457   0.02664   0.02036  -0.0389  0.3513  1.0000  -2.0942   0.0000   0.2616
  14.000   1.2263   0.02795   0.02196  -0.0351  0.3375  1.0000  -2.3351   0.0000   0.2545
  15.000   1.3138   0.02826   0.02234  -0.0314  0.3235  1.0000  -2.6502   0.0000   0.2478
  16.000   1.3865   0.02896   0.02349  -0.0272  0.3073  1.0000  -2.9437   0.0000   0.2414
  18.000   1.3559   0.03376   0.02859   0.0078  0.2775  0.9028  -3.2225   0.0000   0.2117
  19.000   1.4406   0.03763   0.03284  -0.0023  0.2513  0.8918  -3.5768   0.0000   0.2166
  20.000   1.4475   0.05051   0.04592  -0.0138  0.2214  0.8838  -3.7239   0.0000   0.2221
  21.000   1.4355   0.06294   0.05841  -0.0212  0.1921  0.8786  -3.8206   0.0000   0.2250
  22.000   1.4226   0.07681   0.07226  -0.0284  0.1637  0.8750  -3.9044   0.0000   0.2279
  23.000   1.4060   0.09256   0.08821  -0.0367  0.1404  0.8718  -3.9550   0.0000   0.2317
  24.000   1.3748   0.11139   0.10737  -0.0465  0.1228  0.8690  -3.9538   0.0000   0.2374
  25.000   1.0785   0.18538   0.18189  -0.0802  0.0985  0.8677  -2.5628   0.0000   0.2824


