XFLR5 v6.09.05 beta

 Calculated polar for: -25S1223

 1 1 Reynolds number fixed          Mach number fixed         

 xtrf =   1.000 (top)        1.000 (bottom)
 Mach =   0.000     Re =     0.270 e 6     Ncrit =   9.000

  alpha     CL        CD       CDp       Cm    Top Xtr Bot Xtr   Cpmin    Chinge    XCp    
 ------- -------- --------- --------- -------- ------- ------- -------- --------- ---------
   0.000  -0.2171   0.08116   0.07662  -0.0166  0.4924  0.0250  -1.4844   0.0000   0.1692
   1.000  -0.1660   0.06870   0.06409  -0.0311  0.4789  0.0275  -1.6198   0.0000   0.0623
   2.000  -0.0982   0.04988   0.04471  -0.0424  0.4653  0.0285  -1.8828   0.0000  -0.1744
   3.000  -0.0200   0.03830   0.03279  -0.0448  0.4511  0.0346  -1.5996   0.0000  -1.9114
   4.000   0.0868   0.02776   0.02116  -0.0465  0.4385  0.0495  -1.4318   0.0000   0.7544
   5.000   0.2064   0.01920   0.01088  -0.0428  0.4250  0.0256  -1.5990   0.0000   0.4386
   6.000   0.3131   0.01710   0.00879  -0.0399  0.4167  0.0379  -1.0423   0.0000   0.3606
   7.000   0.4197   0.01624   0.00786  -0.0372  0.4058  0.0438  -1.1229   0.0000   0.3219
   8.000   0.5195   0.01680   0.01040  -0.0327  0.3963  0.7771  -1.2279   0.0000   0.2959
   9.000   0.5914   0.02130   0.01500  -0.0185  0.3875  0.8222  -1.3202   0.0000   0.2634
  10.000   0.6706   0.02252   0.01632  -0.0073  0.3790  0.8613  -1.4332   0.0000   0.2420
  11.000   0.9982   0.01870   0.01218  -0.0485  0.3635  1.0000  -1.7913   0.0000   0.2791
  12.000   1.0878   0.02028   0.01400  -0.0453  0.3525  1.0000  -1.9558   0.0000   0.2706
  13.000   1.1792   0.02082   0.01472  -0.0423  0.3409  1.0000  -2.1590   0.0000   0.2632
  14.000   1.2715   0.02106   0.01502  -0.0394  0.3284  1.0000  -2.4403   0.0000   0.2565
  15.000   1.3536   0.02212   0.01646  -0.0357  0.3151  1.0000  -2.7445   0.0000   0.2499
  16.000   1.4444   0.02150   0.01579  -0.0329  0.2974  1.0000  -3.0841   0.0000   0.2442
  17.000   1.3028   0.02432   0.01888   0.0170  0.2914  0.9655  -3.0068   0.0000   0.2065
  18.000   1.4698   0.02404   0.01889   0.0011  0.2636  0.9824  -3.5160   0.0000   0.2165
  20.000   1.5347   0.04102   0.03642  -0.0157  0.2042  0.8697  -3.9807   0.0000   0.2225
  21.000   1.5098   0.05818   0.05370  -0.0294  0.1731  0.8586  -4.0328   0.0000   0.2294
  22.000   1.4766   0.07618   0.07186  -0.0390  0.1480  0.8530  -4.0547   0.0000   0.2341
  23.000   1.4451   0.09297   0.08878  -0.0450  0.1269  0.8507  -4.0767   0.0000   0.2366
  25.000   1.4113   0.12594   0.12192  -0.0634  0.0910  0.8460  -4.2572   0.0000   0.2458


