XFLR5 v6.09.05 beta

 Calculated polar for: -25S1223

 1 1 Reynolds number fixed          Mach number fixed         

 xtrf =   1.000 (top)        1.000 (bottom)
 Mach =   0.000     Re =     0.160 e 6     Ncrit =   9.000

  alpha     CL        CD       CDp       Cm    Top Xtr Bot Xtr   Cpmin    Chinge    XCp    
 ------- -------- --------- --------- -------- ------- ------- -------- --------- ---------
   1.000  -0.1747   0.07015   0.06527  -0.0341  0.5157  0.0460  -1.5567   0.0000   0.0529
   2.000  -0.1135   0.05938   0.05430  -0.0364  0.5006  0.0543  -1.3341   0.0000  -0.0666
   3.000  -0.0275   0.04655   0.04100  -0.0439  0.4863  0.0696  -1.2990   0.0000  -1.2975
   4.000   0.0710   0.03777   0.03163  -0.0458  0.4720  0.1008  -1.0943   0.0000   0.8615
   5.000   0.1978   0.02462   0.01593  -0.0432  0.4608  0.0392  -1.4912   0.0000   0.4506
   6.000   0.3002   0.02311   0.01453  -0.0400  0.4490  0.0577  -0.9977   0.0000   0.3673
   7.000   0.3977   0.02244   0.01379  -0.0349  0.4364  0.0676  -1.0606   0.0000   0.3220
   8.000   0.4554   0.02604   0.01953  -0.0167  0.4276  0.8279  -1.1415   0.0000   0.2700
   9.000   0.5215   0.03083   0.02448  -0.0054  0.4157  0.8806  -1.2132   0.0000   0.2430
  10.000   0.5987   0.03357   0.02725   0.0012  0.4020  0.9132  -1.3070   0.0000   0.2298
  11.000   0.7190   0.03321   0.02657   0.0016  0.3926  0.9415  -1.4741   0.0000   0.2284
  12.000   0.6692   0.04733   0.04142   0.0076  0.3652  0.9303  -1.3990   0.0000   0.2184
  16.000   0.7647   0.08443   0.07885  -0.0071  0.2764  0.9195  -1.5714   0.0000   0.2337
  17.000   0.8974   0.08209   0.07653  -0.0084  0.2673  0.9149  -1.9422   0.0000   0.2311
  18.000   0.9057   0.09423   0.08882  -0.0148  0.2410  0.9108  -2.0036   0.0000   0.2366
  20.000   1.0341   0.10226   0.09731  -0.0217  0.2076  0.9027  -2.4665   0.0000   0.2365
  22.000   0.9779   0.14651   0.14194  -0.0455  0.1504  0.8958  -2.2712   0.0000   0.2605
  23.000   1.0602   0.14803   0.14376  -0.0506  0.1386  0.8920  -2.6120   0.0000   0.2584
  25.000   0.9901   0.20869   0.20472  -0.0842  0.1111  0.8869  -1.9649   0.0000   0.2967


