XFLR5 v6.09.05 beta

 Calculated polar for: -25S1223

 1 1 Reynolds number fixed          Mach number fixed         

 xtrf =   1.000 (top)        1.000 (bottom)
 Mach =   0.000     Re =     0.275 e 6     Ncrit =   9.000

  alpha     CL        CD       CDp       Cm    Top Xtr Bot Xtr   Cpmin    Chinge    XCp    
 ------- -------- --------- --------- -------- ------- ------- -------- --------- ---------
   0.000  -0.2172   0.08102   0.07651  -0.0162  0.4914  0.0243  -1.4744   0.0000   0.1712
   1.000  -0.1687   0.06828   0.06370  -0.0305  0.4779  0.0273  -1.6180   0.0000   0.0685
   2.000  -0.0903   0.05338   0.04825  -0.0411  0.4620  0.0279  -1.7306   0.0000  -0.1969
   3.000  -0.0196   0.03772   0.03219  -0.0450  0.4502  0.0338  -1.6306   0.0000  -1.9642
   4.000   0.0875   0.02746   0.02080  -0.0465  0.4374  0.0488  -1.4511   0.0000   0.7508
   5.000   0.2065   0.01909   0.01080  -0.0428  0.4238  0.0253  -1.6045   0.0000   0.4386
   6.000   0.3133   0.01691   0.00862  -0.0399  0.4158  0.0371  -1.0470   0.0000   0.3604
   7.000   0.4201   0.01606   0.00769  -0.0372  0.4048  0.0435  -1.1245   0.0000   0.3219
   8.000   0.4817   0.01722   0.01104  -0.0212  0.3961  0.6759  -1.2036   0.0000   0.2767
   9.000   0.5957   0.02103   0.01474  -0.0198  0.3869  0.8205  -1.3244   0.0000   0.2653
  10.000   0.6746   0.02240   0.01620  -0.0088  0.3781  0.8576  -1.4371   0.0000   0.2441
  11.000   0.9992   0.01850   0.01200  -0.0486  0.3626  1.0000  -1.7934   0.0000   0.2792
  12.000   1.0893   0.02000   0.01374  -0.0455  0.3519  1.0000  -1.9585   0.0000   0.2707
  13.000   1.1811   0.02050   0.01441  -0.0425  0.3403  1.0000  -2.1626   0.0000   0.2633
  14.000   1.2727   0.02092   0.01488  -0.0396  0.3273  1.0000  -2.4431   0.0000   0.2565
  15.000   1.3558   0.02180   0.01614  -0.0360  0.3144  1.0000  -2.7497   0.0000   0.2501
  16.000   1.4463   0.02127   0.01555  -0.0331  0.2963  1.0000  -3.0888   0.0000   0.2443
  17.000   1.5246   0.02198   0.01679  -0.0297  0.2773  1.0000  -3.4203   0.0000   0.2387
  18.000   1.5930   0.02346   0.01854  -0.0257  0.2535  1.0000  -3.7736   0.0000   0.2331
  20.000   1.5378   0.04084   0.03626  -0.0161  0.2029  0.8688  -3.9893   0.0000   0.2228
  21.000   1.5149   0.05825   0.05376  -0.0306  0.1716  0.8569  -4.0452   0.0000   0.2301
  22.000   1.4774   0.07611   0.07179  -0.0389  0.1472  0.8522  -4.0594   0.0000   0.2340
  23.000   1.4438   0.09294   0.08875  -0.0445  0.1262  0.8502  -4.0772   0.0000   0.2363
  25.000   1.4109   0.12636   0.12237  -0.0641  0.0901  0.8451  -4.2552   0.0000   0.2464


