XFLR5 v6.09.05 beta

 Calculated polar for: -25S1223

 1 1 Reynolds number fixed          Mach number fixed         

 xtrf =   1.000 (top)        1.000 (bottom)
 Mach =   0.000     Re =     0.170 e 6     Ncrit =   9.000

  alpha     CL        CD       CDp       Cm    Top Xtr Bot Xtr   Cpmin    Chinge    XCp    
 ------- -------- --------- --------- -------- ------- ------- -------- --------- ---------
   0.000  -0.2094   0.08450   0.07969  -0.0180  0.5254  0.0404  -1.3461   0.0000   0.1592
   1.000  -0.1586   0.07340   0.06844  -0.0349  0.5102  0.0438  -1.5216   0.0000   0.0291
   2.000  -0.1134   0.05798   0.05283  -0.0375  0.4953  0.0498  -1.4038   0.0000  -0.0764
   3.000  -0.0228   0.04430   0.03856  -0.0455  0.4819  0.0665  -1.4040   0.0000  -1.6815
   4.000   0.0730   0.03597   0.02970  -0.0461  0.4681  0.0942  -1.1288   0.0000   0.8475
   5.000   0.1986   0.02385   0.01525  -0.0431  0.4569  0.0372  -1.5063   0.0000   0.4493
   6.000   0.3024   0.02207   0.01352  -0.0400  0.4446  0.0556  -0.9987   0.0000   0.3659
   7.000   0.4030   0.02112   0.01238  -0.0353  0.4330  0.0643  -1.0739   0.0000   0.3215
   9.000   0.5308   0.02885   0.02252  -0.0058  0.4124  0.8741  -1.2302   0.0000   0.2435
  10.000   0.6226   0.03037   0.02394  -0.0003  0.4003  0.9107  -1.3453   0.0000   0.2321
  11.000   0.7417   0.03208   0.02548  -0.0019  0.3887  0.9425  -1.5015   0.0000   0.2332
  12.000   0.7286   0.04042   0.03447   0.0087  0.3687  0.9371  -1.5031   0.0000   0.2174
  14.000   0.7598   0.05463   0.04896   0.0137  0.3299  0.9336  -1.5935   0.0000   0.2084
  15.000   0.9008   0.04974   0.04400   0.0162  0.3263  0.9284  -1.8942   0.0000   0.2064
  18.000   1.0755   0.06847   0.06330  -0.0044  0.2641  0.9068  -2.4922   0.0000   0.2225
  23.000   1.1278   0.13728   0.13314  -0.0496  0.1410  0.8857  -2.9000   0.0000   0.2532
  25.000   0.9802   0.21131   0.20744  -0.0862  0.1081  0.8823  -1.8941   0.0000   0.3000


