XFLR5 v6.09.05 beta

 Calculated polar for: -25S1223

 1 1 Reynolds number fixed          Mach number fixed         

 xtrf =   1.000 (top)        1.000 (bottom)
 Mach =   0.000     Re =     0.005 e 6     Ncrit =   9.000

  alpha     CL        CD       CDp       Cm    Top Xtr Bot Xtr   Cpmin    Chinge    XCp    
 ------- -------- --------- --------- -------- ------- ------- -------- --------- ---------
   0.000   0.0295   0.08784   0.07167  -0.0209  1.0000  1.0000  -0.9594   0.0000   0.9933
   1.000   0.0517   0.08281   0.06745  -0.0266  1.0000  1.0000  -0.9923   0.0000   0.7738
   2.000   0.0396   0.08105   0.06645  -0.0261  1.0000  1.0000  -1.0745   0.0000   0.9139
   3.000   0.0064   0.08031   0.06621  -0.0219  1.0000  1.0000  -1.1667   0.0000   3.7136
   4.000  -0.0331   0.07850   0.06483  -0.0173  1.0000  1.0000  -1.2678   0.0000  -0.2758
   5.000  -0.0807   0.07518   0.06200  -0.0123  1.0000  1.0000  -1.3797   0.0000   0.0961
   6.000  -0.1401   0.07001   0.05726  -0.0062  1.0000  1.0000  -1.5012   0.0000   0.2041
   7.000  -0.0890   0.06800   0.05139  -0.0187  1.0000  1.0000  -1.6369   0.0000   0.0426
   8.000   0.0036   0.07278   0.05065  -0.0242  1.0000  1.0000  -1.5263   0.0000   6.6668
   9.000   0.0606   0.07734   0.05215  -0.0233  1.0000  1.0000  -1.2832   0.0000   0.6044
  10.000   0.1124   0.08235   0.05500  -0.0223  1.0000  1.0000  -1.0154   0.0000   0.4257
  11.000   0.1619   0.08787   0.05873  -0.0217  1.0000  1.0000  -0.7485   0.0000   0.3634
  12.000   0.2099   0.09392   0.06359  -0.0216  1.0000  1.0000  -0.6294   0.0000   0.3332
  13.000   0.2567   0.10053   0.06934  -0.0222  1.0000  1.0000  -0.6597   0.0000   0.3168
  14.000   0.3024   0.10769   0.07594  -0.0235  1.0000  1.0000  -0.6949   0.0000   0.3077
  15.000   0.3473   0.11542   0.08337  -0.0256  1.0000  1.0000  -0.7326   0.0000   0.3029
  16.000   0.3913   0.12376   0.09153  -0.0283  1.0000  1.0000  -0.7687   0.0000   0.3009
  17.000   0.4345   0.13270   0.10051  -0.0319  1.0000  1.0000  -0.8149   0.0000   0.3010
  18.000   0.4768   0.14228   0.11031  -0.0361  1.0000  1.0000  -0.8606   0.0000   0.3025
  19.000   0.5182   0.15254   0.12095  -0.0411  1.0000  1.0000  -0.9075   0.0000   0.3050
  20.000   0.5586   0.16352   0.13262  -0.0468  1.0000  1.0000  -0.9546   0.0000   0.3082
  21.000   0.5981   0.17527   0.14489  -0.0530  1.0000  1.0000  -1.0004   0.0000   0.3119
  22.000   0.6368   0.18787   0.15808  -0.0599  1.0000  1.0000  -1.0318   0.0000   0.3159
  23.000   0.6746   0.20131   0.17219  -0.0673  1.0000  1.0000  -1.0630   0.0000   0.3201
  24.000   0.7115   0.21546   0.18707  -0.0751  1.0000  1.0000  -1.0965   0.0000   0.3244
  25.000   0.7475   0.23042   0.20344  -0.0832  1.0000  1.0000  -1.1148   0.0000   0.3285


