XFLR5 v6.09.05 beta

 Calculated polar for: -25S1223

 1 1 Reynolds number fixed          Mach number fixed         

 xtrf =   1.000 (top)        1.000 (bottom)
 Mach =   0.000     Re =     0.100 e 6     Ncrit =   9.000

  alpha     CL        CD       CDp       Cm    Top Xtr Bot Xtr   Cpmin    Chinge    XCp    
 ------- -------- --------- --------- -------- ------- ------- -------- --------- ---------
   0.000  -0.1922   0.09071   0.08568  -0.0200  0.5666  0.0756  -1.1413   0.0000   0.1387
   1.000  -0.1667   0.08099   0.07606  -0.0395  0.5501  0.0864  -1.3505   0.0000   0.0087
   2.000  -0.1007   0.07299   0.06771  -0.0428  0.5368  0.1096  -1.2195   0.0000  -0.1744
   3.000  -0.0428   0.06014   0.05493  -0.0444  0.5211  0.1410  -1.0877   0.0000  -0.7714
   4.000   0.0362   0.05337   0.04811  -0.0437  0.5067  0.1886  -0.9099   0.0000   1.4185
   5.000   0.1790   0.03538   0.02691  -0.0475  0.4982  0.0575  -1.4307   0.0000   0.5003
   6.000   0.2713   0.03762   0.02928  -0.0489  0.4805  0.0771  -1.0535   0.0000   0.4170
   7.000   0.3494   0.03992   0.03152  -0.0434  0.4692  0.0906  -0.9019   0.0000   0.3609
   8.000   0.3726   0.04347   0.03725  -0.0186  0.4619  0.8673  -0.9563   0.0000   0.2854
   9.000   0.3915   0.05402   0.04786  -0.0164  0.4504  0.9346  -0.9248   0.0000   0.2774
  10.000   0.4060   0.06328   0.05701  -0.0166  0.4507  0.9587  -0.9035   0.0000   0.2759
  11.000   0.6825   0.07254   0.06600  -0.0586  0.4127  1.0000  -1.1490   0.0000   0.3205
  12.000   0.3830   0.07804   0.07157  -0.0067  0.4454  0.9685  -0.8464   0.0000   0.2507
  13.000   0.5635   0.09233   0.08582  -0.0340  0.4170  0.9928  -1.0038   0.0000   0.2933
  15.000   0.6398   0.10006   0.09325  -0.0117  0.3550  0.9881  -1.2188   0.0000   0.2472
  16.000   0.6237   0.11319   0.10641  -0.0033  0.3561  0.9811  -1.2067   0.0000   0.2333
  18.000   0.6591   0.12563   0.11906  -0.0104  0.2900  0.9702  -1.3034   0.0000   0.2410
  19.000   0.7077   0.13580   0.12937  -0.0165  0.2674  0.9653  -1.4073   0.0000   0.2469
  20.000   0.7340   0.14527   0.13896  -0.0228  0.2294  0.9617  -1.4577   0.0000   0.2531
  21.000   0.7938   0.15468   0.14869  -0.0276  0.2063  0.9585  -1.6066   0.0000   0.2546
  22.000   0.7817   0.17795   0.17225  -0.0411  0.2134  0.9560  -1.4222   0.0000   0.2728
  23.000   0.8362   0.20102   0.19553  -0.0484  0.2084  0.9535  -1.4770   0.0000   0.2766
  25.000   0.8673   0.22327   0.21810  -0.0729  0.1786  0.9489  -1.3845   0.0000   0.3002


