XFLR5 v6.09.05 beta

 Calculated polar for: -25S1223

 1 1 Reynolds number fixed          Mach number fixed         

 xtrf =   1.000 (top)        1.000 (bottom)
 Mach =   0.000     Re =     0.015 e 6     Ncrit =   9.000

  alpha     CL        CD       CDp       Cm    Top Xtr Bot Xtr   Cpmin    Chinge    XCp    
 ------- -------- --------- --------- -------- ------- ------- -------- --------- ---------
   0.000   0.0613   0.07642   0.06860  -0.0258  1.0000  1.0000  -0.7492   0.0000   0.6839
   1.000  -0.1184   0.09208   0.08497   0.0105  1.0000  0.8422  -0.8834   0.0000   0.3241
   2.000  -0.2577   0.09526   0.08860   0.0292  1.0000  0.7285  -1.0128   0.0000   0.3556
   3.000  -0.3856   0.09370   0.08745   0.0424  1.0000  0.6418  -1.1518   0.0000   0.3539
   4.000  -0.4457   0.08626   0.07999   0.0335  1.0000  0.5224  -1.2900   0.0000   0.3197
   5.000  -0.3606   0.07697   0.06947   0.0004  1.0000  0.3893  -1.3627   0.0000   0.2461
   6.000  -0.2356   0.06940   0.06034  -0.0215  1.0000  0.3388  -1.3158   0.0000   0.1550
   7.000  -0.1297   0.06539   0.05493  -0.0310  1.0000  0.3735  -1.1922   0.0000   0.0100
   8.000  -0.0335   0.06395   0.05240  -0.0341  1.0000  0.4427  -1.1861   0.0000  -0.7486
   9.000   0.0336   0.06128   0.04962  -0.0219  1.0000  1.0000  -1.4183   0.0000   0.8630
  10.000   0.0885   0.06680   0.05296  -0.0204  1.0000  1.0000  -1.1905   0.0000   0.4571
  11.000   0.1381   0.07271   0.05764  -0.0195  1.0000  1.0000  -0.9129   0.0000   0.3709
  12.000   0.1863   0.07923   0.06318  -0.0194  1.0000  1.0000  -0.6397   0.0000   0.3349
  13.000   0.2337   0.08643   0.06980  -0.0203  1.0000  1.0000  -0.6148   0.0000   0.3174
  14.000   0.2805   0.09435   0.07734  -0.0220  1.0000  1.0000  -0.6441   0.0000   0.3088
  15.000   0.3271   0.10306   0.08586  -0.0246  1.0000  1.0000  -0.6835   0.0000   0.3053
  16.000   0.3733   0.11253   0.09522  -0.0282  1.0000  1.0000  -0.7201   0.0000   0.3049
  18.000   0.5688   0.15082   0.13381  -0.0564  0.7972  1.0000  -0.9161   0.0000   0.3271
  19.000   0.6163   0.16575   0.14913  -0.0605  0.7338  1.0000  -0.9818   0.0000   0.3249
  20.000   0.6562   0.17838   0.16206  -0.0640  0.6791  1.0000  -1.0332   0.0000   0.3231
  21.000   0.7118   0.20126   0.18528  -0.0710  0.6369  1.0000  -1.0845   0.0000   0.3241
  22.000   0.7291   0.20462   0.18896  -0.0733  0.5934  1.0000  -1.0990   0.0000   0.3235
  23.000   0.7659   0.21873   0.20346  -0.0792  0.5587  1.0000  -1.1318   0.0000   0.3250
  24.000   0.8001   0.23155   0.21708  -0.0851  0.5199  1.0000  -1.1466   0.0000   0.3264
  25.000   0.8435   0.25455   0.24056  -0.0926  0.4923  1.0000  -1.1950   0.0000   0.3282


