XFLR5 v6.09.05 beta

 Calculated polar for: -25S1223

 1 1 Reynolds number fixed          Mach number fixed         

 xtrf =   1.000 (top)        1.000 (bottom)
 Mach =   0.000     Re =     0.150 e 6     Ncrit =   9.000

  alpha     CL        CD       CDp       Cm    Top Xtr Bot Xtr   Cpmin    Chinge    XCp    
 ------- -------- --------- --------- -------- ------- ------- -------- --------- ---------
   1.000  -0.1753   0.07253   0.06772  -0.0286  0.5197  0.0495  -1.3650   0.0000   0.0850
   2.000  -0.0937   0.06214   0.05678  -0.0416  0.5049  0.0627  -1.4121   0.0000  -0.1878
   3.000  -0.0303   0.04870   0.04319  -0.0428  0.4909  0.0751  -1.2280   0.0000  -1.1193
   4.000   0.0675   0.03922   0.03314  -0.0460  0.4765  0.1164  -1.0688   0.0000   0.8982
   5.000   0.1973   0.02554   0.01689  -0.0435  0.4659  0.0412  -1.4776   0.0000   0.4530
   6.000   0.2978   0.02430   0.01564  -0.0401  0.4537  0.0598  -0.9976   0.0000   0.3688
   7.000   0.3914   0.02406   0.01550  -0.0346  0.4403  0.0715  -1.0455   0.0000   0.3229
   8.000   0.4448   0.02777   0.02140  -0.0155  0.4311  0.8344  -1.1206   0.0000   0.2685
   9.000   0.5080   0.03206   0.02563  -0.0035  0.4199  0.8876  -1.1947   0.0000   0.2397
  10.000   0.5634   0.03835   0.03220   0.0014  0.4019  0.9150  -1.2455   0.0000   0.2297
  12.000   0.6222   0.05283   0.04686   0.0058  0.3646  0.9296  -1.3127   0.0000   0.2207
  13.000   0.7811   0.04916   0.04302   0.0067  0.3589  0.9641  -1.5764   0.0000   0.2198
  14.000   0.6882   0.06468   0.05870   0.0093  0.3294  0.9398  -1.4425   0.0000   0.2136
  16.000   0.8059   0.07722   0.07139   0.0018  0.2922  0.9265  -1.6943   0.0000   0.2216
  17.000   0.8524   0.08622   0.08050  -0.0070  0.2673  0.9202  -1.8309   0.0000   0.2305
  18.000   0.8753   0.09956   0.09400  -0.0162  0.2410  0.9154  -1.9091   0.0000   0.2394
  19.000   0.8826   0.11344   0.10805  -0.0232  0.2162  0.9122  -1.9428   0.0000   0.2458
  23.000   1.0051   0.15712   0.15259  -0.0505  0.1381  0.8993  -2.3673   0.0000   0.2622
  24.000   0.9553   0.19005   0.18568  -0.0689  0.1201  0.8967  -1.9483   0.0000   0.2853


