XFLR5 v6.09.05 beta

 Calculated polar for: -25S1223

 1 1 Reynolds number fixed          Mach number fixed         

 xtrf =   1.000 (top)        1.000 (bottom)
 Mach =   0.000     Re =     0.140 e 6     Ncrit =   9.000

  alpha     CL        CD       CDp       Cm    Top Xtr Bot Xtr   Cpmin    Chinge    XCp    
 ------- -------- --------- --------- -------- ------- ------- -------- --------- ---------
   0.000  -0.2112   0.08526   0.08041  -0.0201  0.5397  0.0479  -1.3503   0.0000   0.1493
   1.000  -0.1728   0.07422   0.06936  -0.0273  0.5249  0.0550  -1.2903   0.0000   0.0898
   2.000  -0.1085   0.05984   0.05470  -0.0412  0.5102  0.0660  -1.4098   0.0000  -0.1263
   3.000  -0.0272   0.04880   0.04297  -0.0451  0.4962  0.0881  -1.2841   0.0000  -1.3596
   4.000   0.0621   0.04147   0.03560  -0.0451  0.4817  0.1224  -1.0233   0.0000   0.9414
   5.000   0.1953   0.02746   0.01888  -0.0440  0.4701  0.0430  -1.4613   0.0000   0.4582
   6.000   0.2950   0.02575   0.01695  -0.0402  0.4582  0.0618  -0.9969   0.0000   0.3704
   7.000   0.3837   0.02611   0.01763  -0.0346  0.4446  0.0751  -1.0268   0.0000   0.3248
   8.000   0.4322   0.03049   0.02427  -0.0157  0.4340  0.8396  -1.0904   0.0000   0.2702
   9.000   0.5148   0.03331   0.02671  -0.0043  0.4237  0.9034  -1.1940   0.0000   0.2414
  10.000   0.5206   0.04469   0.03867  -0.0014  0.4007  0.9174  -1.1614   0.0000   0.2353
  12.000   0.9303   0.05179   0.04571  -0.0483  0.3640  1.0000  -1.6221   0.0000   0.2828
  13.000   1.0045   0.05180   0.04572  -0.0400  0.3546  1.0000  -1.8041   0.0000   0.2688
  15.000   0.6578   0.08172   0.07569   0.0004  0.3040  0.9384  -1.3507   0.0000   0.2260
  16.000   0.7839   0.07983   0.07382   0.0024  0.2950  0.9335  -1.6428   0.0000   0.2211
  17.000   0.8048   0.09123   0.08535  -0.0057  0.2679  0.9276  -1.7110   0.0000   0.2299
  18.000   0.8219   0.10481   0.09909  -0.0146  0.2418  0.9225  -1.7660   0.0000   0.2394
  19.000   0.8417   0.11934   0.11380  -0.0239  0.2173  0.9181  -1.8105   0.0000   0.2488
  20.000   0.8680   0.13243   0.12721  -0.0316  0.1940  0.9146  -1.8699   0.0000   0.2553
  21.000   0.9752   0.12768   0.12259  -0.0307  0.1825  0.9118  -2.2920   0.0000   0.2466
  22.000   0.9857   0.14200   0.13712  -0.0390  0.1605  0.9092  -2.3321   0.0000   0.2532
  23.000   0.9587   0.16671   0.16202  -0.0521  0.1390  0.9068  -2.1316   0.0000   0.2678
  24.000   0.9208   0.19676   0.19224  -0.0694  0.1272  0.9045  -1.7565   0.0000   0.2899


