XFLR5 v6.09.05 beta

 Calculated polar for: -25S1223

 1 1 Reynolds number fixed          Mach number fixed         

 xtrf =   1.000 (top)        1.000 (bottom)
 Mach =   0.000     Re =     0.165 e 6     Ncrit =   9.000

  alpha     CL        CD       CDp       Cm    Top Xtr Bot Xtr   Cpmin    Chinge    XCp    
 ------- -------- --------- --------- -------- ------- ------- -------- --------- ---------
   0.000  -0.2128   0.08575   0.08090  -0.0208  0.5281  0.0423  -1.4071   0.0000   0.1477
   1.000  -0.1570   0.07378   0.06877  -0.0359  0.5124  0.0439  -1.5395   0.0000   0.0202
   2.000  -0.1140   0.05872   0.05361  -0.0367  0.4983  0.0518  -1.3603   0.0000  -0.0672
   3.000  -0.0253   0.04538   0.03976  -0.0447  0.4840  0.0678  -1.3489   0.0000  -1.4645
   4.000   0.0717   0.03684   0.03066  -0.0459  0.4700  0.0969  -1.1083   0.0000   0.8564
   5.000   0.1977   0.02439   0.01574  -0.0431  0.4584  0.0381  -1.4993   0.0000   0.4504
   6.000   0.3014   0.02257   0.01402  -0.0400  0.4468  0.0566  -0.9979   0.0000   0.3666
   7.000   0.4004   0.02173   0.01302  -0.0351  0.4347  0.0663  -1.0673   0.0000   0.3216
   8.000   0.4590   0.02595   0.01943  -0.0180  0.4247  0.8234  -1.1455   0.0000   0.2726
   9.000   0.5259   0.02976   0.02342  -0.0054  0.4140  0.8773  -1.2216   0.0000   0.2430
  10.000   0.6518   0.03060   0.02417  -0.0064  0.4007  0.9236  -1.3632   0.0000   0.2418
  11.000   0.7312   0.03267   0.02600  -0.0001  0.3904  0.9420  -1.4897   0.0000   0.2307
  14.000   0.7410   0.05707   0.05128   0.0128  0.3295  0.9347  -1.5554   0.0000   0.2093
  16.000   0.8928   0.06722   0.06159   0.0015  0.2953  0.9184  -1.8933   0.0000   0.2214
  19.000   1.0660   0.08309   0.07803  -0.0126  0.2367  0.9041  -2.5233   0.0000   0.2286
  21.000   0.9902   0.12699   0.12232  -0.0358  0.1722  0.8961  -2.3324   0.0000   0.2511
  22.000   1.1152   0.12132   0.11694  -0.0384  0.1636  0.8917  -2.8387   0.0000   0.2455
  23.000   1.0921   0.14321   0.13902  -0.0508  0.1395  0.8886  -2.7467   0.0000   0.2565
  25.000   0.9833   0.21060   0.20668  -0.0853  0.1097  0.8842  -1.9180   0.0000   0.2987


