XFLR5 v6.09.05 beta

 Calculated polar for: -25S1223

 1 1 Reynolds number fixed          Mach number fixed         

 xtrf =   1.000 (top)        1.000 (bottom)
 Mach =   0.000     Re =     0.310 e 6     Ncrit =   9.000

  alpha     CL        CD       CDp       Cm    Top Xtr Bot Xtr   Cpmin    Chinge    XCp    
 ------- -------- --------- --------- -------- ------- ------- -------- --------- ---------
   0.000  -0.2195   0.08009   0.07572  -0.0158  0.4849  0.0207  -1.5052   0.0000   0.1741
   1.000  -0.1838   0.06670   0.06225  -0.0272  0.4705  0.0226  -1.5774   0.0000   0.1015
   2.000  -0.0995   0.05245   0.04760  -0.0397  0.4557  0.0271  -1.6861   0.0000  -0.1420
   3.000  -0.0154   0.03373   0.02788  -0.0459  0.4439  0.0302  -1.9079   0.0000  -2.6346
   4.000   0.0897   0.02692   0.02034  -0.0461  0.4291  0.0397  -1.4980   0.0000   0.7337
   6.000   0.3149   0.01581   0.00762  -0.0399  0.4093  0.0325  -1.0837   0.0000   0.3595
   7.000   0.4226   0.01508   0.00677  -0.0375  0.3983  0.0414  -1.1337   0.0000   0.3220
   8.000   0.5056   0.01576   0.00956  -0.0292  0.3884  0.6591  -1.2219   0.0000   0.2905
   9.000   0.6190   0.02044   0.01427  -0.0253  0.3815  0.8117  -1.3481   0.0000   0.2730
  10.000   0.6947   0.02148   0.01534  -0.0136  0.3723  0.8444  -1.4602   0.0000   0.2505
  11.000   0.8950   0.02014   0.01385  -0.0259  0.3579  0.9557  -1.6989   0.0000   0.2591
  12.000   1.0505   0.01934   0.01325  -0.0362  0.3486  0.9869  -1.9247   0.0000   0.2633
  13.000   1.1545   0.01941   0.01339  -0.0357  0.3371  0.9923  -2.1397   0.0000   0.2581
  15.000   1.3284   0.02055   0.01497  -0.0288  0.3120  0.9925  -2.7120   0.0000   0.2451
  16.000   1.4205   0.02042   0.01479  -0.0267  0.2928  0.9935  -3.0501   0.0000   0.2401
  17.000   1.5111   0.02068   0.01552  -0.0256  0.2744  0.9953  -3.4024   0.0000   0.2361
  18.000   1.5852   0.02217   0.01729  -0.0227  0.2496  0.9967  -3.7669   0.0000   0.2313
  20.000   1.5587   0.03997   0.03541  -0.0194  0.1938  0.8633  -4.0459   0.0000   0.2247
  21.000   1.5248   0.05832   0.05380  -0.0320  0.1646  0.8514  -4.0780   0.0000   0.2309
  23.000   1.4499   0.09366   0.08935  -0.0487  0.1168  0.8429  -4.0982   0.0000   0.2390
  24.000   1.4256   0.11115   0.10695  -0.0578  0.0977  0.8406  -4.1535   0.0000   0.2438
  25.000   1.4147   0.12769   0.12370  -0.0674  0.0834  0.8384  -4.2714   0.0000   0.2486


