XFLR5 v6.09.05 beta

 Calculated polar for: -25S1223

 1 1 Reynolds number fixed          Mach number fixed         

 xtrf =   1.000 (top)        1.000 (bottom)
 Mach =   0.000     Re =     0.350 e 6     Ncrit =   9.000

  alpha     CL        CD       CDp       Cm    Top Xtr Bot Xtr   Cpmin    Chinge    XCp    
 ------- -------- --------- --------- -------- ------- ------- -------- --------- ---------
   0.000  -0.2263   0.07834   0.07409  -0.0173  0.4788  0.0182  -1.6599   0.0000   0.1695
   1.000  -0.1851   0.06532   0.06090  -0.0282  0.4606  0.0196  -1.6669   0.0000   0.0968
   2.000  -0.1123   0.05086   0.04622  -0.0387  0.4501  0.0220  -1.6832   0.0000  -0.0885
   3.000  -0.0067   0.03779   0.03227  -0.0446  0.4356  0.0277  -1.7330   0.0000  -6.1297
   4.000   0.0916   0.02493   0.01834  -0.0464  0.4222  0.0338  -1.5995   0.0000   0.7273
   5.000   0.2087   0.01668   0.00874  -0.0427  0.4138  0.0213  -1.6825   0.0000   0.4358
   6.000   0.3183   0.01529   0.00720  -0.0405  0.4029  0.0289  -1.0693   0.0000   0.3599
   7.000   0.4244   0.01476   0.00658  -0.0380  0.3894  0.0386  -1.1372   0.0000   0.3227
   8.000   0.5300   0.01414   0.00800  -0.0358  0.3840  0.6434  -1.2441   0.0000   0.3005
   9.000   0.6195   0.01812   0.01209  -0.0259  0.3761  0.8040  -1.3551   0.0000   0.2738
  10.000   0.6973   0.01970   0.01365  -0.0140  0.3672  0.8343  -1.4693   0.0000   0.2509
  11.000   0.8324   0.02034   0.01430  -0.0131  0.3551  0.9218  -1.6436   0.0000   0.2457
  12.000   0.9486   0.02018   0.01429  -0.0146  0.3469  0.9303  -1.8285   0.0000   0.2439
  13.000   1.0679   0.01967   0.01377  -0.0167  0.3354  0.9498  -2.0451   0.0000   0.2426
  14.000   1.1486   0.02070   0.01488  -0.0118  0.3229  0.9508  -2.2555   0.0000   0.2356
  15.000   1.2344   0.02061   0.01516  -0.0081  0.3120  0.9539  -2.5614   0.0000   0.2300
  17.000   1.4074   0.02053   0.01539  -0.0025  0.2775  0.9687  -3.2118   0.0000   0.2211
  18.000   1.4791   0.02159   0.01677   0.0011  0.2552  0.9731  -3.5531   0.0000   0.2164
  19.000   1.4255   0.02433   0.01961   0.0256  0.2358  0.9566  -3.6385   0.0000   0.1970
  21.000   1.5377   0.05728   0.05280  -0.0340  0.1573  0.8435  -4.1155   0.0000   0.2319
  22.000   1.4893   0.07607   0.07176  -0.0427  0.1317  0.8396  -4.1035   0.0000   0.2363
  23.000   1.4544   0.09464   0.09042  -0.0517  0.1089  0.8363  -4.1148   0.0000   0.2410
  24.000   1.4325   0.11208   0.10794  -0.0611  0.0905  0.8334  -4.1759   0.0000   0.2459
  25.000   1.4233   0.12867   0.12461  -0.0711  0.0773  0.8306  -4.2980   0.0000   0.2509


