XFLR5 v6.09.05 beta

 Calculated polar for: -25S1223

 1 1 Reynolds number fixed          Mach number fixed         

 xtrf =   1.000 (top)        1.000 (bottom)
 Mach =   0.000     Re =     0.185 e 6     Ncrit =   9.000

  alpha     CL        CD       CDp       Cm    Top Xtr Bot Xtr   Cpmin    Chinge    XCp    
 ------- -------- --------- --------- -------- ------- ------- -------- --------- ---------
   0.000  -0.2104   0.08339   0.07867  -0.0164  0.5189  0.0353  -1.3454   0.0000   0.1673
   1.000  -0.1762   0.07087   0.06607  -0.0279  0.5044  0.0402  -1.4213   0.0000   0.0905
   2.000  -0.1059   0.05429   0.04901  -0.0422  0.4910  0.0460  -1.6257   0.0000  -0.1429
   3.000  -0.0225   0.04459   0.03903  -0.0440  0.4753  0.0583  -1.3585   0.0000  -1.6436
   4.000   0.0779   0.03413   0.02748  -0.0467  0.4617  0.0892  -1.2053   0.0000   0.8176
   5.000   0.2007   0.02250   0.01397  -0.0430  0.4516  0.0345  -1.5358   0.0000   0.4461
   6.000   0.3053   0.02068   0.01214  -0.0398  0.4391  0.0526  -1.0027   0.0000   0.3640
   7.000   0.4072   0.01993   0.01111  -0.0356  0.4275  0.0607  -1.0880   0.0000   0.3211
   8.000   0.4823   0.02400   0.01756  -0.0237  0.4184  0.8152  -1.1705   0.0000   0.2825
   9.000   0.5433   0.02670   0.02037  -0.0073  0.4080  0.8634  -1.2518   0.0000   0.2459
  10.000   0.6506   0.02733   0.02078  -0.0032  0.3970  0.9071  -1.3875   0.0000   0.2365
  11.000   0.7574   0.02995   0.02348  -0.0033  0.3851  0.9394  -1.5262   0.0000   0.2349
  13.000   1.1294   0.02965   0.02327  -0.0377  0.3548  1.0000  -2.0625   0.0000   0.2612
  14.000   1.1949   0.03289   0.02701  -0.0337  0.3392  1.0000  -2.2618   0.0000   0.2544
  15.000   1.2974   0.03052   0.02459  -0.0302  0.3279  1.0000  -2.6100   0.0000   0.2473
  17.000   1.2030   0.04098   0.03566   0.0096  0.2995  0.9125  -2.7361   0.0000   0.2120
  18.000   0.9858   0.08217   0.07724  -0.0130  0.2434  0.8994  -2.2346   0.0000   0.2325
  19.000   1.1889   0.06747   0.06268  -0.0124  0.2426  0.8942  -2.8608   0.0000   0.2262
  20.000   1.2549   0.07354   0.06902  -0.0203  0.2193  0.8886  -3.1491   0.0000   0.2296
  21.000   1.3533   0.07375   0.06929  -0.0234  0.1970  0.8848  -3.5613   0.0000   0.2279
  22.000   1.3596   0.08530   0.08091  -0.0293  0.1702  0.8819  -3.6936   0.0000   0.2298
  23.000   1.3515   0.09986   0.09558  -0.0371  0.1460  0.8795  -3.7618   0.0000   0.2335
  24.000   1.3030   0.12153   0.11762  -0.0476  0.1275  0.8773  -3.6678   0.0000   0.2409


