XFLR5 v6.09.05 beta

 Calculated polar for: -25S1223

 1 1 Reynolds number fixed          Mach number fixed         

 xtrf =   1.000 (top)        1.000 (bottom)
 Mach =   0.000     Re =     0.110 e 6     Ncrit =   9.000

  alpha     CL        CD       CDp       Cm    Top Xtr Bot Xtr   Cpmin    Chinge    XCp    
 ------- -------- --------- --------- -------- ------- ------- -------- --------- ---------
   1.000  -0.1671   0.07811   0.07331  -0.0284  0.5414  0.0751  -1.1967   0.0000   0.0762
   2.000  -0.1157   0.06601   0.06088  -0.0383  0.5306  0.0901  -1.2356   0.0000  -0.0801
   3.000  -0.0414   0.05664   0.05149  -0.0426  0.5120  0.1181  -1.0966   0.0000  -0.7573
   4.000   0.0451   0.04862   0.04300  -0.0436  0.5004  0.1751  -0.9359   0.0000   1.1758
   5.000   0.1812   0.03315   0.02473  -0.0463  0.4893  0.0525  -1.4545   0.0000   0.4900
   6.000   0.2778   0.03299   0.02457  -0.0444  0.4720  0.0720  -1.0394   0.0000   0.3956
   7.000   0.3637   0.03267   0.02403  -0.0354  0.4632  0.0907  -0.9723   0.0000   0.3329
   9.000   0.4000   0.05036   0.04431  -0.0121  0.4354  0.9156  -0.9608   0.0000   0.2650
  10.000   0.6211   0.05621   0.04980  -0.0379  0.4154  0.9733  -1.1573   0.0000   0.2957
  11.000   0.4302   0.06502   0.05871  -0.0037  0.4164  0.9506  -0.9695   0.0000   0.2417
  12.000   0.5500   0.06709   0.06050  -0.0034  0.3934  0.9671  -1.1343   0.0000   0.2377
  13.000   0.4368   0.08242   0.07604  -0.0025  0.4028  0.9578  -0.9281   0.0000   0.2372
  14.000   0.5687   0.08205   0.07540   0.0034  0.3601  0.9772  -1.1704   0.0000   0.2232
  15.000   0.5287   0.09544   0.08890   0.0005  0.3483  0.9696  -1.0662   0.0000   0.2279
  16.000   0.5873   0.10249   0.09594  -0.0027  0.3151  0.9629  -1.1700   0.0000   0.2318
  17.000   0.6472   0.10940   0.10296  -0.0062  0.2849  0.9581  -1.2975   0.0000   0.2350
  18.000   0.7677   0.11088   0.10446  -0.0064  0.2654  0.9529  -1.6304   0.0000   0.2309
  19.000   0.7684   0.12606   0.11984  -0.0161  0.2397  0.9485  -1.6100   0.0000   0.2427
  20.000   0.7922   0.13895   0.13291  -0.0244  0.2142  0.9445  -1.6431   0.0000   0.2513
  22.000   0.8233   0.17060   0.16511  -0.0432  0.1739  0.9391  -1.6094   0.0000   0.2710
  23.000   0.8998   0.17690   0.17161  -0.0461  0.1600  0.9368  -1.8604   0.0000   0.2666
  24.000   0.8849   0.21541   0.21037  -0.0617  0.1827  0.9351  -1.5413   0.0000   0.2863
  25.000   0.8874   0.22226   0.21737  -0.0762  0.1645  0.9328  -1.4468   0.0000   0.3014


