XFLR5 v6.09.05 beta

 Calculated polar for: -25S1223

 1 1 Reynolds number fixed          Mach number fixed         

 xtrf =   1.000 (top)        1.000 (bottom)
 Mach =   0.000     Re =     0.025 e 6     Ncrit =   9.000

  alpha     CL        CD       CDp       Cm    Top Xtr Bot Xtr   Cpmin    Chinge    XCp    
 ------- -------- --------- --------- -------- ------- ------- -------- --------- ---------
   0.000   0.1561   0.06749   0.06076  -0.0498  0.8875  1.0000  -0.7217   0.0000   0.5708
   1.000   0.2351   0.05970   0.05289  -0.0651  0.8568  1.0000  -0.7652   0.0000   0.5244
   2.000   0.0739   0.06895   0.06289  -0.0442  0.8580  0.7001  -0.7732   0.0000   0.8444
   3.000  -0.0897   0.07513   0.06987  -0.0229  0.8727  0.6404  -0.9020   0.0000  -0.0094
   4.000  -0.2561   0.07813   0.07341   0.0128  0.9117  0.6574  -0.9883   0.0000   0.2947
   5.000  -0.4242   0.07491   0.07060   0.0389  0.9715  0.6428  -1.1124   0.0000   0.3365
   6.000  -0.2232   0.06680   0.05971  -0.0302  1.0000  0.2449  -1.3072   0.0000   0.1105
   7.000  -0.1081   0.06171   0.05300  -0.0406  1.0000  0.2142  -1.2733   0.0000  -0.1264
   8.000  -0.0164   0.06134   0.05102  -0.0425  1.0000  0.2246  -1.1385   0.0000  -2.3007
   9.000   0.0524   0.06301   0.05258  -0.0382  1.0000  0.3526  -1.1471   0.0000   0.9503
  10.000   0.0855   0.06341   0.05334  -0.0203  1.0000  1.0000  -1.2229   0.0000   0.4649
  11.000   0.1329   0.06937   0.05819  -0.0188  1.0000  1.0000  -0.9596   0.0000   0.3718
  12.000   0.2680   0.08303   0.07073  -0.0359  0.9216  1.0000  -0.6266   0.0000   0.3675
  14.000   0.4405   0.11048   0.09731  -0.0448  0.7351  1.0000  -0.7826   0.0000   0.3343
  15.000   0.4669   0.11765   0.10439  -0.0423  0.6894  1.0000  -0.8056   0.0000   0.3220
  16.000   0.5193   0.12973   0.11645  -0.0439  0.6445  1.0000  -0.8697   0.0000   0.3150
  17.000   0.5866   0.14775   0.13456  -0.0482  0.6037  1.0000  -0.9595   0.0000   0.3116
  18.000   0.6319   0.16204   0.14916  -0.0510  0.5675  1.0000  -1.0255   0.0000   0.3089
  19.000   0.6670   0.17483   0.16211  -0.0533  0.5301  1.0000  -1.0855   0.0000   0.3070
  20.000   0.7144   0.19234   0.17988  -0.0577  0.4947  1.0000  -1.1467   0.0000   0.3066
  21.000   0.7323   0.19794   0.18577  -0.0601  0.4606  1.0000  -1.1512   0.0000   0.3066
  22.000   0.7457   0.20149   0.18956  -0.0641  0.4299  1.0000  -1.1579   0.0000   0.3091
  23.000   0.7701   0.21045   0.19878  -0.0705  0.4056  1.0000  -1.1606   0.0000   0.3133
  24.000   0.8091   0.22737   0.21635  -0.0775  0.3842  1.0000  -1.1761   0.0000   0.3159


