XFLR5 v6.09.05 beta

 Calculated polar for: -25S1223

 1 1 Reynolds number fixed          Mach number fixed         

 xtrf =   1.000 (top)        1.000 (bottom)
 Mach =   0.000     Re =     0.245 e 6     Ncrit =   9.000

  alpha     CL        CD       CDp       Cm    Top Xtr Bot Xtr   Cpmin    Chinge    XCp    
 ------- -------- --------- --------- -------- ------- ------- -------- --------- ---------
   0.000  -0.2138   0.08352   0.07888  -0.0208  0.4994  0.0276  -1.5582   0.0000   0.1486
   1.000  -0.1605   0.06945   0.06471  -0.0330  0.4853  0.0279  -1.6521   0.0000   0.0437
   2.000  -0.1121   0.05228   0.04733  -0.0393  0.4717  0.0317  -1.6460   0.0000  -0.0947
   3.000  -0.0157   0.04046   0.03479  -0.0447  0.4562  0.0417  -1.5509   0.0000  -2.5007
   4.000   0.0846   0.02958   0.02311  -0.0464  0.4443  0.0545  -1.3497   0.0000   0.7675
   5.000   0.2064   0.02008   0.01172  -0.0429  0.4331  0.0271  -1.5604   0.0000   0.4390
   6.000   0.3121   0.01824   0.00978  -0.0401  0.4214  0.0417  -1.0179   0.0000   0.3616
   7.000   0.4164   0.01713   0.00866  -0.0367  0.4113  0.0476  -1.1134   0.0000   0.3215
   8.000   0.5061   0.01830   0.01196  -0.0290  0.4019  0.7831  -1.2120   0.0000   0.2904
   9.000   0.5785   0.02225   0.01582  -0.0143  0.3923  0.8328  -1.3076   0.0000   0.2568
  10.000   0.6637   0.02387   0.01756  -0.0055  0.3836  0.8725  -1.4213   0.0000   0.2395
  11.000   0.9907   0.02013   0.01364  -0.0476  0.3676  1.0000  -1.7763   0.0000   0.2787
  12.000   1.0791   0.02195   0.01554  -0.0442  0.3553  1.0000  -1.9399   0.0000   0.2701
  13.000   1.1685   0.02262   0.01648  -0.0411  0.3445  1.0000  -2.1384   0.0000   0.2626
  14.000   1.2607   0.02267   0.01653  -0.0381  0.3323  1.0000  -2.4148   0.0000   0.2558
  15.000   1.3412   0.02397   0.01822  -0.0342  0.3184  1.0000  -2.7152   0.0000   0.2491
  16.000   1.4301   0.02336   0.01773  -0.0312  0.3017  1.0000  -3.0488   0.0000   0.2433
  17.000   1.3511   0.02545   0.01995   0.0056  0.2914  0.9704  -3.0845   0.0000   0.2155
  18.000   1.5566   0.02507   0.02000  -0.0190  0.2608  0.9977  -3.6868   0.0000   0.2293
  19.000   1.5224   0.03159   0.02667  -0.0065  0.2406  0.8867  -3.7983   0.0000   0.2190
  21.000   1.4874   0.05792   0.05335  -0.0238  0.1801  0.8668  -3.9782   0.0000   0.2260
  22.000   1.4599   0.07549   0.07111  -0.0346  0.1535  0.8608  -4.0112   0.0000   0.2314
  23.000   1.4444   0.09229   0.08802  -0.0446  0.1309  0.8562  -4.0636   0.0000   0.2363
  24.000   1.4329   0.10777   0.10358  -0.0527  0.1119  0.8532  -4.1622   0.0000   0.2399
  25.000   1.4236   0.12258   0.11840  -0.0600  0.0941  0.8511  -4.3067   0.0000   0.2429


