XFLR5 v6.09.05 beta

 Calculated polar for: -25S1223

 1 1 Reynolds number fixed          Mach number fixed         

 xtrf =   1.000 (top)        1.000 (bottom)
 Mach =   0.000     Re =     0.320 e 6     Ncrit =   9.000

  alpha     CL        CD       CDp       Cm    Top Xtr Bot Xtr   Cpmin    Chinge    XCp    
 ------- -------- --------- --------- -------- ------- ------- -------- --------- ---------
   0.000  -0.2206   0.07973   0.07540  -0.0160  0.4832  0.0200  -1.5314   0.0000   0.1736
   1.000  -0.1844   0.06644   0.06199  -0.0272  0.4683  0.0217  -1.5902   0.0000   0.1019
   2.000  -0.1083   0.05155   0.04678  -0.0391  0.4545  0.0252  -1.6776   0.0000  -0.1040
   3.000  -0.0051   0.03889   0.03322  -0.0445  0.4409  0.0279  -1.7287   0.0000  -8.0801
   4.000   0.0898   0.02640   0.01982  -0.0463  0.4261  0.0378  -1.5183   0.0000   0.7351
   5.000   0.2079   0.01749   0.00944  -0.0428  0.4181  0.0227  -1.6483   0.0000   0.4369
   6.000   0.3155   0.01560   0.00743  -0.0399  0.4076  0.0314  -1.0887   0.0000   0.3594
   7.000   0.4232   0.01491   0.00662  -0.0376  0.3963  0.0407  -1.1355   0.0000   0.3221
   8.000   0.5121   0.01531   0.00912  -0.0309  0.3874  0.6553  -1.2279   0.0000   0.2932
   9.000   0.6184   0.01963   0.01350  -0.0254  0.3802  0.8099  -1.3494   0.0000   0.2731
  10.000   0.6943   0.02089   0.01479  -0.0134  0.3710  0.8418  -1.4619   0.0000   0.2502
  11.000   0.8741   0.02047   0.01427  -0.0216  0.3563  0.9474  -1.6793   0.0000   0.2549
  12.000   1.0068   0.01987   0.01384  -0.0266  0.3486  0.9689  -1.8815   0.0000   0.2552
  16.000   1.3935   0.02045   0.01485  -0.0206  0.2931  0.9856  -3.0044   0.0000   0.2362
  17.000   1.4814   0.02067   0.01554  -0.0189  0.2754  0.9887  -3.3442   0.0000   0.2320
  18.000   1.5484   0.02207   0.01721  -0.0144  0.2521  0.9909  -3.6918   0.0000   0.2263
  20.000   1.5647   0.04002   0.03543  -0.0210  0.1909  0.8613  -4.0601   0.0000   0.2256
  21.000   1.5242   0.05829   0.05377  -0.0316  0.1628  0.8509  -4.0794   0.0000   0.2306
  23.000   1.4516   0.09368   0.08935  -0.0493  0.1138  0.8413  -4.1045   0.0000   0.2394
  24.000   1.4275   0.11114   0.10688  -0.0584  0.0942  0.8388  -4.1607   0.0000   0.2441
  25.000   1.4161   0.12798   0.12397  -0.0682  0.0818  0.8365  -4.2763   0.0000   0.2491


