XFLR5 v6.09.05 beta

 Calculated polar for: -25S1223

 1 1 Reynolds number fixed          Mach number fixed         

 xtrf =   1.000 (top)        1.000 (bottom)
 Mach =   0.000     Re =     0.075 e 6     Ncrit =   9.000

  alpha     CL        CD       CDp       Cm    Top Xtr Bot Xtr   Cpmin    Chinge    XCp    
 ------- -------- --------- --------- -------- ------- ------- -------- --------- ---------
   0.000  -0.2081   0.10380   0.09865  -0.0364  0.6007  0.1097  -1.2628   0.0000   0.0675
   1.000  -0.1537   0.08713   0.08236  -0.0341  0.5828  0.1313  -1.0781   0.0000   0.0210
   2.000  -0.1104   0.08008   0.07509  -0.0412  0.5708  0.1646  -1.0621   0.0000  -0.1268
   3.000  -0.0549   0.07004   0.06512  -0.0452  0.5559  0.2047  -0.9812   0.0000  -0.5703
   4.000   0.0140   0.06250   0.05759  -0.0465  0.5449  0.2512  -0.8828   0.0000   3.5066
   5.000   0.1692   0.04625   0.03802  -0.0585  0.5353  0.0868  -1.3429   0.0000   0.5840
   6.000   0.2585   0.04634   0.03775  -0.0587  0.5235  0.0929  -1.0814   0.0000   0.4657
   7.000   0.3218   0.05128   0.04258  -0.0564  0.5238  0.1082  -0.9483   0.0000   0.4139
   8.000   0.5569   0.06051   0.05388  -0.0800  0.5344  1.0000  -0.9505   0.0000   0.3827
  10.000   0.5060   0.07699   0.07009  -0.0646  0.5383  1.0000  -0.8767   0.0000   0.3650
  11.000   0.5068   0.08271   0.07558  -0.0558  0.5082  1.0000  -0.8807   0.0000   0.3462
  12.000   0.6243   0.09896   0.09156  -0.0575  0.4941  1.0000  -1.0220   0.0000   0.3269
  13.000   0.6233   0.10108   0.09355  -0.0475  0.4611  1.0000  -1.0471   0.0000   0.3096
  14.000   0.5697   0.10370   0.09615  -0.0381  0.4329  1.0000  -0.9862   0.0000   0.2991
  15.000   0.5678   0.11086   0.10328  -0.0327  0.4084  1.0000  -0.9904   0.0000   0.2886
  17.000   0.6197   0.12646   0.11890  -0.0243  0.3617  1.0000  -1.1153   0.0000   0.2674
  18.000   0.6147   0.13544   0.12806  -0.0255  0.3412  1.0000  -1.1057   0.0000   0.2688
  19.000   0.7087   0.15554   0.14828  -0.0276  0.3235  1.0000  -1.3028   0.0000   0.2644
  20.000   0.7645   0.16800   0.16092  -0.0301  0.2935  1.0000  -1.4148   0.0000   0.2630
  21.000   0.7116   0.16900   0.16205  -0.0381  0.2731  1.0000  -1.2320   0.0000   0.2769
  22.000   0.7399   0.18168   0.17490  -0.0452  0.2526  1.0000  -1.2486   0.0000   0.2832
  23.000   0.8378   0.20974   0.20342  -0.0484  0.2359  1.0000  -1.4533   0.0000   0.2773
  24.000   0.8124   0.20657   0.20036  -0.0607  0.2166  1.0000  -1.2922   0.0000   0.2935
  25.000   0.8653   0.22923   0.22326  -0.0669  0.2080  1.0000  -1.4001   0.0000   0.2940


