XFLR5 v6.09.05 beta

 Calculated polar for: -25S1223

 1 1 Reynolds number fixed          Mach number fixed         

 xtrf =   1.000 (top)        1.000 (bottom)
 Mach =   0.000     Re =     0.240 e 6     Ncrit =   9.000

  alpha     CL        CD       CDp       Cm    Top Xtr Bot Xtr   Cpmin    Chinge    XCp    
 ------- -------- --------- --------- -------- ------- ------- -------- --------- ---------
   0.000  -0.2132   0.08378   0.07914  -0.0214  0.5013  0.0277  -1.5652   0.0000   0.1456
   2.000  -0.1129   0.05312   0.04819  -0.0385  0.4728  0.0324  -1.5947   0.0000  -0.0858
   3.000  -0.0088   0.04277   0.03694  -0.0445  0.4569  0.0436  -1.5298   0.0000  -4.6285
   4.000   0.0845   0.02999   0.02351  -0.0464  0.4456  0.0560  -1.3386   0.0000   0.7680
   5.000   0.2064   0.02043   0.01206  -0.0429  0.4344  0.0274  -1.5479   0.0000   0.4394
   6.000   0.3120   0.01853   0.01004  -0.0402  0.4222  0.0424  -1.0132   0.0000   0.3619
   7.000   0.4156   0.01733   0.00884  -0.0366  0.4125  0.0485  -1.1114   0.0000   0.3214
   8.000   0.5034   0.01867   0.01234  -0.0283  0.4030  0.7847  -1.2084   0.0000   0.2893
   9.000   0.5779   0.02233   0.01588  -0.0139  0.3941  0.8353  -1.3067   0.0000   0.2562
  10.000   0.6619   0.02423   0.01789  -0.0053  0.3845  0.8742  -1.4184   0.0000   0.2391
  11.000   0.9888   0.02050   0.01401  -0.0474  0.3684  1.0000  -1.7726   0.0000   0.2786
  12.000   1.0771   0.02235   0.01592  -0.0440  0.3558  1.0000  -1.9362   0.0000   0.2700
  13.000   1.1660   0.02304   0.01688  -0.0408  0.3453  1.0000  -2.1337   0.0000   0.2625
  14.000   1.2576   0.02313   0.01701  -0.0378  0.3330  1.0000  -2.4077   0.0000   0.2557
  16.000   1.1627   0.02845   0.02301   0.0204  0.3137  0.9340  -2.5735   0.0000   0.2042
  17.000   1.2996   0.02786   0.02224   0.0127  0.2949  0.9171  -2.9851   0.0000   0.2097
  18.000   1.4000   0.02827   0.02315   0.0080  0.2727  0.9021  -3.3483   0.0000   0.2116
  19.000   1.5179   0.03197   0.02706  -0.0062  0.2418  0.8870  -3.7854   0.0000   0.2189
  21.000   1.4852   0.05780   0.05319  -0.0230  0.1812  0.8683  -3.9728   0.0000   0.2255
  22.000   1.4565   0.07511   0.07071  -0.0332  0.1546  0.8627  -4.0041   0.0000   0.2305
  23.000   1.4417   0.09183   0.08753  -0.0433  0.1319  0.8581  -4.0577   0.0000   0.2355
  24.000   1.4358   0.10693   0.10270  -0.0520  0.1125  0.8546  -4.1718   0.0000   0.2393
  25.000   1.4181   0.12405   0.11997  -0.0613  0.0970  0.8523  -4.2751   0.0000   0.2441


