XFLR5 v6.09.05 beta

 Calculated polar for: -25S1223

 1 1 Reynolds number fixed          Mach number fixed         

 xtrf =   1.000 (top)        1.000 (bottom)
 Mach =   0.000     Re =     0.180 e 6     Ncrit =   9.000

  alpha     CL        CD       CDp       Cm    Top Xtr Bot Xtr   Cpmin    Chinge    XCp    
 ------- -------- --------- --------- -------- ------- ------- -------- --------- ---------
   1.000  -0.1674   0.07177   0.06689  -0.0317  0.5063  0.0428  -1.4845   0.0000   0.0592
   2.000  -0.1094   0.05557   0.05036  -0.0404  0.4925  0.0470  -1.5393   0.0000  -0.1147
   3.000  -0.0107   0.04748   0.04160  -0.0446  0.4769  0.0628  -1.3782   0.0000  -3.7672
   4.000   0.0762   0.03449   0.02799  -0.0465  0.4641  0.0906  -1.1794   0.0000   0.8277
   5.000   0.2000   0.02292   0.01438  -0.0430  0.4534  0.0354  -1.5244   0.0000   0.4472
   6.000   0.3044   0.02111   0.01258  -0.0399  0.4408  0.0536  -1.0008   0.0000   0.3646
   7.000   0.4066   0.02017   0.01136  -0.0355  0.4295  0.0618  -1.0848   0.0000   0.3212
   9.000   0.5398   0.02732   0.02098  -0.0067  0.4095  0.8672  -1.2456   0.0000   0.2450
  10.000   0.6424   0.02818   0.02167  -0.0023  0.3982  0.9083  -1.3752   0.0000   0.2351
  11.000   0.7572   0.03043   0.02392  -0.0037  0.3862  0.9426  -1.5229   0.0000   0.2355
  13.000   1.1245   0.03059   0.02418  -0.0374  0.3556  1.0000  -2.0529   0.0000   0.2611
  14.000   1.1828   0.03481   0.02898  -0.0336  0.3391  1.0000  -2.2332   0.0000   0.2546
  15.000   1.2880   0.03178   0.02590  -0.0296  0.3286  1.0000  -2.5879   0.0000   0.2471
  16.000   0.8316   0.07681   0.07147  -0.0066  0.2763  0.9119  -1.7295   0.0000   0.2316
  17.000   0.9524   0.07278   0.06750  -0.0057  0.2688  0.9072  -2.0967   0.0000   0.2270
  18.000   1.1269   0.06144   0.05641  -0.0035  0.2673  0.9027  -2.6279   0.0000   0.2212
  19.000   1.0761   0.08303   0.07818  -0.0161  0.2321  0.8963  -2.5437   0.0000   0.2317
  20.000   1.1935   0.08105   0.07636  -0.0212  0.2161  0.8910  -2.9650   0.0000   0.2316
  21.000   1.2613   0.08622   0.08182  -0.0273  0.1945  0.8866  -3.2680   0.0000   0.2329
  22.000   1.3232   0.09056   0.08622  -0.0302  0.1715  0.8837  -3.5724   0.0000   0.2314
  23.000   1.3296   0.10304   0.09879  -0.0376  0.1473  0.8813  -3.6834   0.0000   0.2346


