XFLR5 v6.09.05 beta

 Calculated polar for: -25S1223

 1 1 Reynolds number fixed          Mach number fixed         

 xtrf =   1.000 (top)        1.000 (bottom)
 Mach =   0.000     Re =     0.020 e 6     Ncrit =   9.000

  alpha     CL        CD       CDp       Cm    Top Xtr Bot Xtr   Cpmin    Chinge    XCp    
 ------- -------- --------- --------- -------- ------- ------- -------- --------- ---------
   0.000   0.0594   0.07612   0.06969  -0.0261  1.0000  1.0000  -0.6969   0.0000   0.7031
   1.000   0.0590   0.07472   0.06854  -0.0273  0.9845  1.0000  -0.7270   0.0000   0.7229
   2.000  -0.1010   0.08542   0.07958   0.0020  0.9627  0.8188  -0.8456   0.0000   0.2575
   3.000  -0.2583   0.08817   0.08275   0.0246  0.9694  0.7261  -0.9786   0.0000   0.3383
   4.000  -0.4214   0.08628   0.08132   0.0528  1.0000  0.6853  -1.1048   0.0000   0.3694
   5.000  -0.3966   0.07623   0.07040   0.0094  1.0000  0.4268  -1.2716   0.0000   0.2687
   6.000  -0.2175   0.06908   0.06090  -0.0293  1.0000  0.2719  -1.3315   0.0000   0.1115
   7.000  -0.1131   0.06382   0.05423  -0.0376  1.0000  0.2594  -1.2401   0.0000  -0.0828
   8.000  -0.0237   0.06350   0.05267  -0.0400  1.0000  0.3104  -1.1283   0.0000  -1.4087
   9.000   0.0300   0.06040   0.05175  -0.0274  1.0000  0.6180  -1.2609   0.0000   1.1201
  11.000   0.1345   0.07059   0.05785  -0.0190  1.0000  1.0000  -0.9419   0.0000   0.3714
  12.000   0.1818   0.07714   0.06352  -0.0188  1.0000  1.0000  -0.6689   0.0000   0.3339
  13.000   0.2286   0.08439   0.07024  -0.0195  1.0000  1.0000  -0.6039   0.0000   0.3160
  15.000   0.4436   0.11513   0.10030  -0.0445  0.8050  1.0000  -0.7762   0.0000   0.3317
  16.000   0.5233   0.13400   0.11907  -0.0505  0.7371  1.0000  -0.8636   0.0000   0.3269
  17.000   0.5404   0.14001   0.12520  -0.0487  0.6961  1.0000  -0.8884   0.0000   0.3194
  18.000   0.5890   0.15299   0.13837  -0.0516  0.6445  1.0000  -0.9510   0.0000   0.3158
  19.000   0.6547   0.17477   0.16054  -0.0579  0.6031  1.0000  -1.0497   0.0000   0.3154
  20.000   0.6878   0.18739   0.17337  -0.0609  0.5659  1.0000  -1.0896   0.0000   0.3145
  21.000   0.7107   0.19498   0.18124  -0.0637  0.5279  1.0000  -1.0985   0.0000   0.3142
  22.000   0.7608   0.21646   0.20308  -0.0701  0.4941  1.0000  -1.1628   0.0000   0.3153
  23.000   0.7995   0.23350   0.22083  -0.0756  0.4587  1.0000  -1.1982   0.0000   0.3163
  24.000   0.8073   0.22885   0.21648  -0.0807  0.4328  1.0000  -1.1660   0.0000   0.3201
  25.000   0.8364   0.24131   0.22929  -0.0878  0.4065  1.0000  -1.1945   0.0000   0.3235


