XFLR5 v6.09.05 beta

 Calculated polar for: -25S1223

 1 1 Reynolds number fixed          Mach number fixed         

 xtrf =   1.000 (top)        1.000 (bottom)
 Mach =   0.000     Re =     0.060 e 6     Ncrit =   9.000

  alpha     CL        CD       CDp       Cm    Top Xtr Bot Xtr   Cpmin    Chinge    XCp    
 ------- -------- --------- --------- -------- ------- ------- -------- --------- ---------
   0.000  -0.1616   0.09887   0.09371  -0.0275  0.6352  0.1547  -0.9823   0.0000   0.0688
   1.000  -0.1403   0.08976   0.08493  -0.0351  0.6223  0.1783  -0.9922   0.0000  -0.0093
   2.000  -0.1074   0.08158   0.07683  -0.0393  0.6099  0.2128  -0.9635   0.0000  -0.1223
   3.000  -0.0626   0.07469   0.06992  -0.0420  0.5967  0.2609  -0.9135   0.0000  -0.4225
   4.000  -0.0014   0.06826   0.06334  -0.0493  0.5910  0.3217  -0.8852   0.0000  -34.7096
   5.000   0.1592   0.05393   0.04601  -0.0713  0.5858  0.1106  -1.2899   0.0000   0.6878
   6.000   0.2395   0.05426   0.04558  -0.0732  0.5925  0.1086  -1.1173   0.0000   0.5456
   7.000   0.2292   0.06034   0.05163  -0.0757  0.6813  0.1106  -1.0583   0.0000   0.5706
   8.000   0.2628   0.06385   0.05507  -0.0649  0.6519  0.1435  -0.9962   0.0000   0.4863
   9.000   0.3902   0.07110   0.06405  -0.0666  0.6214  1.0000  -0.7860   0.0000   0.4096
  10.000   0.4261   0.07815   0.07056  -0.0605  0.5928  1.0000  -0.7860   0.0000   0.3796
  11.000   0.5691   0.09581   0.08770  -0.0661  0.5667  1.0000  -0.9289   0.0000   0.3525
  12.000   0.5337   0.09518   0.08691  -0.0518  0.5334  1.0000  -0.9127   0.0000   0.3322
  13.000   0.5164   0.09845   0.09007  -0.0426  0.5021  1.0000  -0.8997   0.0000   0.3162
  14.000   0.5173   0.10456   0.09608  -0.0363  0.4739  1.0000  -0.9092   0.0000   0.3027
  15.000   0.5532   0.11535   0.10679  -0.0328  0.4549  1.0000  -0.9623   0.0000   0.2905
  16.000   0.6189   0.12705   0.11849  -0.0304  0.4256  1.0000  -1.0765   0.0000   0.2789
  17.000   0.6012   0.12995   0.12146  -0.0283  0.3957  1.0000  -1.0591   0.0000   0.2757
  18.000   0.6099   0.13896   0.13068  -0.0304  0.3730  1.0000  -1.0708   0.0000   0.2776
  19.000   0.6689   0.15549   0.14733  -0.0336  0.3540  1.0000  -1.1816   0.0000   0.2765
  21.000   0.7174   0.17365   0.16585  -0.0430  0.3002  1.0000  -1.2149   0.0000   0.2836
  22.000   0.7404   0.18569   0.17809  -0.0503  0.2803  1.0000  -1.2159   0.0000   0.2905
  23.000   0.8204   0.21373   0.20660  -0.0548  0.2636  1.0000  -1.3562   0.0000   0.2872
  24.000   0.8131   0.21107   0.20410  -0.0653  0.2436  1.0000  -1.2575   0.0000   0.2995
  25.000   0.8449   0.22589   0.21912  -0.0740  0.2300  1.0000  -1.2864   0.0000   0.3051


