XFLR5 v6.09.05 beta

 Calculated polar for: -5s1223

 1 1 Reynolds number fixed          Mach number fixed         

 xtrf =   1.000 (top)        1.000 (bottom)
 Mach =   0.000     Re =     0.220 e 6     Ncrit =   9.000

  alpha     CL        CD       CDp       Cm    Top Xtr Bot Xtr   Cpmin    Chinge    XCp    
 ------- -------- --------- --------- -------- ------- ------- -------- --------- ---------
   0.000   0.8713   0.01797   0.00942  -0.2262  0.4844  0.0416  -1.2586   0.0000   0.5071
   1.000   1.0154   0.01694   0.00791  -0.2324  0.4593  0.0530  -1.3894   0.0000   0.4748
   2.000   1.1484   0.01739   0.00891  -0.2365  0.4434  0.3661  -1.5275   0.0000   0.4503
   3.000   1.2681   0.01802   0.00954  -0.2377  0.4289  0.4414  -1.6602   0.0000   0.4303
   4.000   1.3697   0.01880   0.01117  -0.2349  0.4156  0.9158  -1.7776   0.0000   0.4127
   6.000   1.5843   0.02142   0.01371  -0.2328  0.3952  1.0000  -2.0626   0.0000   0.3848
   7.000   1.6911   0.02429   0.01654  -0.2325  0.3822  1.0000  -2.2377   0.0000   0.3736
   8.000   1.7878   0.02557   0.01809  -0.2297  0.3729  1.0000  -2.4312   0.0000   0.3628
   9.000   1.8839   0.02678   0.01954  -0.2269  0.3595  1.0000  -2.6963   0.0000   0.3528
  10.000   1.9743   0.02942   0.02237  -0.2238  0.3458  1.0000  -3.0346   0.0000   0.3437
  11.000   2.0510   0.03032   0.02372  -0.2175  0.3308  1.0000  -3.3662   0.0000   0.3343
  12.000   2.1202   0.03152   0.02507  -0.2101  0.3120  1.0000  -3.6978   0.0000   0.3251
  13.000   2.1553   0.03310   0.02709  -0.1967  0.2955  1.0000  -4.0060   0.0000   0.3151
  14.000   2.1809   0.03624   0.03063  -0.1836  0.2767  1.0000  -4.3004   0.0000   0.3057
  15.000   2.1843   0.04143   0.03620  -0.1703  0.2527  1.0000  -4.5459   0.0000   0.2971
  16.000   2.1519   0.05282   0.04802  -0.1610  0.2229  1.0000  -4.6895   0.0000   0.2913
  17.000   2.0743   0.07383   0.06940  -0.1591  0.1913  1.0000  -4.6863   0.0000   0.2904
  18.000   1.9792   0.10069   0.09656  -0.1637  0.1634  1.0000  -4.5946   0.0000   0.2937
  19.000   1.9086   0.12477   0.12082  -0.1714  0.1375  1.0000  -4.5382   0.0000   0.2979
  20.000   1.8654   0.14426   0.14042  -0.1800  0.1148  1.0000  -4.5733   0.0000   0.3019
  21.000   1.8360   0.16297   0.15929  -0.1893  0.0963  1.0000  -4.6748   0.0000   0.3056


