XFLR5 v6.09.05 beta

 Calculated polar for: -5s1223

 1 1 Reynolds number fixed          Mach number fixed         

 xtrf =   1.000 (top)        1.000 (bottom)
 Mach =   0.000     Re =     0.120 e 6     Ncrit =   9.000

  alpha     CL        CD       CDp       Cm    Top Xtr Bot Xtr   Cpmin    Chinge    XCp    
 ------- -------- --------- --------- -------- ------- ------- -------- --------- ---------
   0.000   0.8639   0.02223   0.01321  -0.2265  0.5471  0.0727  -1.2339   0.0000   0.5099
   1.000   1.0122   0.02104   0.01139  -0.2330  0.5186  0.0940  -1.3616   0.0000   0.4764
   2.000   1.1329   0.02253   0.01347  -0.2341  0.4973  0.4431  -1.4877   0.0000   0.4513
   3.000   1.2518   0.02409   0.01512  -0.2357  0.4815  0.5380  -1.6066   0.0000   0.4315
   4.000   1.3333   0.02464   0.01630  -0.2285  0.4658  1.0000  -1.7070   0.0000   0.4130
   5.000   1.4419   0.02838   0.01973  -0.2286  0.4525  1.0000  -1.8351   0.0000   0.3986
   6.000   1.5361   0.03130   0.02300  -0.2260  0.4405  1.0000  -1.9667   0.0000   0.3856
   7.000   1.6304   0.03437   0.02614  -0.2234  0.4269  1.0000  -2.1288   0.0000   0.3738
   8.000   1.7107   0.03940   0.03141  -0.2193  0.4133  1.0000  -2.2903   0.0000   0.3632
   9.000   1.7741   0.04369   0.03637  -0.2124  0.3972  1.0000  -2.4666   0.0000   0.3529
  10.000   1.8577   0.04798   0.04075  -0.2088  0.3815  1.0000  -2.7655   0.0000   0.3436
  11.000   1.8153   0.05718   0.05086  -0.1887  0.3642  1.0000  -2.8468   0.0000   0.3334
  12.000   1.9328   0.05678   0.05042  -0.1882  0.3468  1.0000  -3.2538   0.0000   0.3245
  17.000   1.4287   0.19283   0.18840  -0.2046  0.1862  1.0000  -2.4104   0.0000   0.3614


