XFLR5 v6.09.05 beta

 Calculated polar for: -5s1223

 1 1 Reynolds number fixed          Mach number fixed         

 xtrf =   1.000 (top)        1.000 (bottom)
 Mach =   0.000     Re =     0.165 e 6     Ncrit =   9.000

  alpha     CL        CD       CDp       Cm    Top Xtr Bot Xtr   Cpmin    Chinge    XCp    
 ------- -------- --------- --------- -------- ------- ------- -------- --------- ---------
   0.000   0.8660   0.01997   0.01124  -0.2259  0.5116  0.0584  -1.2476   0.0000   0.5084
   1.000   1.0130   0.01889   0.00951  -0.2323  0.4850  0.0649  -1.3772   0.0000   0.4753
   2.000   1.1417   0.01950   0.01071  -0.2353  0.4664  0.3991  -1.5112   0.0000   0.4506
   3.000   1.2656   0.02087   0.01205  -0.2378  0.4507  0.4840  -1.6405   0.0000   0.4308
   5.000   1.4640   0.02282   0.01459  -0.2314  0.4259  1.0000  -1.8843   0.0000   0.3979
   6.000   1.5695   0.02585   0.01773  -0.2308  0.4143  1.0000  -2.0281   0.0000   0.3852
   7.000   1.6672   0.02799   0.02009  -0.2285  0.4028  1.0000  -2.1947   0.0000   0.3735
   8.000   1.7679   0.02994   0.02203  -0.2267  0.3899  1.0000  -2.3915   0.0000   0.3628
   9.000   1.8521   0.03346   0.02606  -0.2226  0.3765  1.0000  -2.6193   0.0000   0.3529
  10.000   1.9338   0.03543   0.02837  -0.2177  0.3616  1.0000  -2.9391   0.0000   0.3432
  11.000   2.0157   0.03802   0.03112  -0.2132  0.3455  1.0000  -3.2737   0.0000   0.3343
  12.000   2.0768   0.03882   0.03244  -0.2044  0.3271  1.0000  -3.5852   0.0000   0.3248
  13.000   2.1141   0.04070   0.03465  -0.1922  0.3083  1.0000  -3.8842   0.0000   0.3150
  14.000   2.1430   0.04250   0.03671  -0.1794  0.2890  1.0000  -4.1860   0.0000   0.3055
  15.000   2.1167   0.04971   0.04469  -0.1641  0.2683  1.0000  -4.3523   0.0000   0.2969
  16.000   2.0791   0.06153   0.05698  -0.1565  0.2437  1.0000  -4.4736   0.0000   0.2920
  17.000   2.0050   0.08232   0.07815  -0.1564  0.2146  1.0000  -4.4675   0.0000   0.2920
  18.000   1.9262   0.10666   0.10268  -0.1620  0.1837  1.0000  -4.4103   0.0000   0.2952
  19.000   1.8839   0.12563   0.12164  -0.1680  0.1548  1.0000  -4.4317   0.0000   0.2975


