XFLR5 v6.09.05 beta

 Calculated polar for: -5s1223

 1 1 Reynolds number fixed          Mach number fixed         

 xtrf =   1.000 (top)        1.000 (bottom)
 Mach =   0.000     Re =     0.125 e 6     Ncrit =   9.000

  alpha     CL        CD       CDp       Cm    Top Xtr Bot Xtr   Cpmin    Chinge    XCp    
 ------- -------- --------- --------- -------- ------- ------- -------- --------- ---------
   0.000   0.8646   0.02184   0.01280  -0.2265  0.5421  0.0705  -1.2363   0.0000   0.5096
   1.000   1.0107   0.02073   0.01110  -0.2325  0.5139  0.0868  -1.3628   0.0000   0.4762
   2.000   1.1365   0.02238   0.01327  -0.2348  0.4922  0.4377  -1.4925   0.0000   0.4513
   3.000   1.2533   0.02350   0.01461  -0.2358  0.4771  0.5301  -1.6109   0.0000   0.4313
   4.000   1.3374   0.02403   0.01566  -0.2290  0.4618  1.0000  -1.7148   0.0000   0.4129
   5.000   1.4442   0.02748   0.01895  -0.2288  0.4496  1.0000  -1.8406   0.0000   0.3985
   6.000   1.5409   0.03031   0.02205  -0.2266  0.4366  1.0000  -1.9755   0.0000   0.3855
   7.000   1.6411   0.03318   0.02487  -0.2249  0.4236  1.0000  -2.1461   0.0000   0.3737
   8.000   1.7168   0.03808   0.03017  -0.2200  0.4101  1.0000  -2.3013   0.0000   0.3631
   9.000   1.7918   0.04150   0.03413  -0.2145  0.3943  1.0000  -2.4987   0.0000   0.3528
  10.000   1.8646   0.04617   0.03904  -0.2093  0.3792  1.0000  -2.7825   0.0000   0.3434
  11.000   1.8888   0.05133   0.04483  -0.1970  0.3615  1.0000  -2.9957   0.0000   0.3335
  12.000   1.9476   0.05431   0.04801  -0.1894  0.3445  1.0000  -3.2893   0.0000   0.3242
  13.000   1.6745   0.08872   0.08340  -0.1676  0.3194  1.0000  -2.8605   0.0000   0.3253
  15.000   1.9662   0.06891   0.06385  -0.1569  0.2834  1.0000  -3.9366   0.0000   0.2996


