XFLR5 v6.09.05 beta

 Calculated polar for: -5s1223

 1 1 Reynolds number fixed          Mach number fixed         

 xtrf =   1.000 (top)        1.000 (bottom)
 Mach =   0.000     Re =     0.205 e 6     Ncrit =   9.000

  alpha     CL        CD       CDp       Cm    Top Xtr Bot Xtr   Cpmin    Chinge    XCp    
 ------- -------- --------- --------- -------- ------- ------- -------- --------- ---------
   0.000   0.8691   0.01883   0.01013  -0.2257  0.4891  0.0444  -1.2557   0.0000   0.5072
   1.000   1.0141   0.01723   0.00819  -0.2322  0.4661  0.0560  -1.3863   0.0000   0.4749
   2.000   1.1482   0.01797   0.00940  -0.2365  0.4484  0.3752  -1.5244   0.0000   0.4504
   3.000   1.2671   0.01862   0.01006  -0.2376  0.4342  0.4489  -1.6551   0.0000   0.4303
   4.000   1.3609   0.01920   0.01144  -0.2330  0.4196  1.0000  -1.7675   0.0000   0.4125
   5.000   1.4732   0.02081   0.01298  -0.2331  0.4108  1.0000  -1.9043   0.0000   0.3979
   6.000   1.5807   0.02237   0.01461  -0.2322  0.3997  1.0000  -2.0542   0.0000   0.3849
   7.000   1.6874   0.02426   0.01639  -0.2315  0.3882  1.0000  -2.2327   0.0000   0.3734
   8.000   1.7840   0.02684   0.01923  -0.2292  0.3768  1.0000  -2.4225   0.0000   0.3629
   9.000   1.8766   0.02822   0.02098  -0.2258  0.3633  1.0000  -2.6785   0.0000   0.3528
  10.000   1.9695   0.03108   0.02392  -0.2233  0.3482  1.0000  -3.0209   0.0000   0.3438
  11.000   2.0426   0.03201   0.02531  -0.2164  0.3343  1.0000  -3.3443   0.0000   0.3342
  12.000   2.1188   0.03301   0.02644  -0.2103  0.3145  1.0000  -3.6896   0.0000   0.3253
  13.000   2.1476   0.03464   0.02864  -0.1958  0.2983  1.0000  -3.9823   0.0000   0.3151
  14.000   2.1736   0.03758   0.03190  -0.1828  0.2798  1.0000  -4.2777   0.0000   0.3057
  15.000   2.1759   0.04257   0.03724  -0.1693  0.2559  1.0000  -4.5206   0.0000   0.2969
  16.000   2.1404   0.05398   0.04908  -0.1598  0.2274  1.0000  -4.6557   0.0000   0.2912
  17.000   2.0651   0.07459   0.07013  -0.1580  0.1972  1.0000  -4.6567   0.0000   0.2903
  18.000   1.9738   0.10081   0.09669  -0.1627  0.1688  1.0000  -4.5735   0.0000   0.2934
  19.000   1.9070   0.12418   0.12025  -0.1701  0.1427  1.0000  -4.5266   0.0000   0.2974
  20.000   1.8677   0.14283   0.13904  -0.1782  0.1199  1.0000  -4.5733   0.0000   0.3008
  21.000   1.8405   0.16096   0.15729  -0.1872  0.1010  1.0000  -4.6879   0.0000   0.3042


