XFLR5 v6.09.05 beta

 Calculated polar for: -5s1223

 1 1 Reynolds number fixed          Mach number fixed         

 xtrf =   1.000 (top)        1.000 (bottom)
 Mach =   0.000     Re =     0.075 e 6     Ncrit =   9.000

  alpha     CL        CD       CDp       Cm    Top Xtr Bot Xtr   Cpmin    Chinge    XCp    
 ------- -------- --------- --------- -------- ------- ------- -------- --------- ---------
   0.000   0.8431   0.02774   0.01878  -0.2252  0.6131  0.0998  -1.1948   0.0000   0.5152
   1.000   0.9973   0.02621   0.01715  -0.2328  0.5817  0.3209  -1.3188   0.0000   0.4802
   2.000   1.0958   0.02897   0.02005  -0.2289  0.5576  0.5225  -1.4222   0.0000   0.4541
   3.000   1.2052   0.03093   0.02202  -0.2294  0.5377  0.6431  -1.5232   0.0000   0.4340
   4.000   1.2775   0.03403   0.02538  -0.2222  0.5213  1.0000  -1.6080   0.0000   0.4162
   5.000   1.3557   0.03968   0.03102  -0.2189  0.5049  1.0000  -1.6968   0.0000   0.4023
   6.000   1.4455   0.04604   0.03715  -0.2168  0.4907  1.0000  -1.8190   0.0000   0.3892
   7.000   1.1092   0.09374   0.08662  -0.1989  0.4755  1.0000  -1.3456   0.0000   0.4186
   8.000   1.3602   0.07902   0.07139  -0.1929  0.4560  1.0000  -1.7521   0.0000   0.3785
   9.000   1.0633   0.13663   0.12988  -0.2068  0.4974  1.0000  -1.2044   0.0000   0.4317
  10.000   1.0866   0.14833   0.14159  -0.2062  0.4629  1.0000  -1.2378   0.0000   0.4253
  11.000   1.1017   0.16105   0.15439  -0.2075  0.4336  1.0000  -1.2523   0.0000   0.4223
  12.000   1.1332   0.17368   0.16721  -0.2091  0.4054  1.0000  -1.3088   0.0000   0.4167
  13.000   1.2494   0.19354   0.18713  -0.2068  0.3823  1.0000  -1.5736   0.0000   0.3954
  14.000   1.2899   0.20596   0.19970  -0.2063  0.3489  1.0000  -1.7130   0.0000   0.3876
  15.000   1.3098   0.21685   0.21097  -0.2079  0.3161  1.0000  -1.7901   0.0000   0.3843


