XFLR5 v6.09.05 beta

 Calculated polar for: -5s1223

 1 1 Reynolds number fixed          Mach number fixed         

 xtrf =   1.000 (top)        1.000 (bottom)
 Mach =   0.000     Re =     0.150 e 6     Ncrit =   9.000

  alpha     CL        CD       CDp       Cm    Top Xtr Bot Xtr   Cpmin    Chinge    XCp    
 ------- -------- --------- --------- -------- ------- ------- -------- --------- ---------
   0.000   0.8633   0.02117   0.01229  -0.2254  0.5214  0.0635  -1.2431   0.0000   0.5087
   1.000   1.0149   0.01943   0.00987  -0.2329  0.4932  0.0729  -1.3751   0.0000   0.4755
   2.000   1.1404   0.02040   0.01155  -0.2353  0.4752  0.4111  -1.5044   0.0000   0.4509
   3.000   1.2621   0.02147   0.01251  -0.2371  0.4590  0.4977  -1.6336   0.0000   0.4308
   4.000   1.3467   0.02220   0.01413  -0.2306  0.4460  1.0000  -1.7335   0.0000   0.4127
   5.000   1.4566   0.02422   0.01598  -0.2303  0.4335  1.0000  -1.8683   0.0000   0.3980
   6.000   1.5652   0.02687   0.01853  -0.2301  0.4210  1.0000  -2.0191   0.0000   0.3852
   7.000   1.6585   0.03004   0.02201  -0.2274  0.4099  1.0000  -2.1777   0.0000   0.3736
   8.000   1.7502   0.03243   0.02461  -0.2241  0.3961  1.0000  -2.3605   0.0000   0.3628
   9.000   1.8416   0.03628   0.02871  -0.2215  0.3816  1.0000  -2.5931   0.0000   0.3531
  10.000   1.9093   0.03894   0.03194  -0.2144  0.3672  1.0000  -2.8838   0.0000   0.3432
  11.000   2.0054   0.04074   0.03368  -0.2122  0.3499  1.0000  -3.2454   0.0000   0.3344
  13.000   2.1030   0.04386   0.03771  -0.1915  0.3128  1.0000  -3.8473   0.0000   0.3153
  14.000   2.0969   0.04724   0.04165  -0.1744  0.2938  1.0000  -4.0652   0.0000   0.3051
  15.000   2.0724   0.05502   0.04999  -0.1612  0.2737  1.0000  -4.2302   0.0000   0.2973
  16.000   2.0454   0.06589   0.06130  -0.1551  0.2497  1.0000  -4.3746   0.0000   0.2926
  17.000   1.9671   0.08746   0.08329  -0.1561  0.2214  1.0000  -4.3496   0.0000   0.2934
  18.000   1.8700   0.11522   0.11139  -0.1642  0.1907  1.0000  -4.2197   0.0000   0.2992
  19.000   1.8346   0.13322   0.12950  -0.1710  0.1614  1.0000  -4.2473   0.0000   0.3018


