XFLR5 v6.09.05 beta

 Calculated polar for: -5s1223

 1 1 Reynolds number fixed          Mach number fixed         

 xtrf =   1.000 (top)        1.000 (bottom)
 Mach =   0.000     Re =     0.070 e 6     Ncrit =   9.000

  alpha     CL        CD       CDp       Cm    Top Xtr Bot Xtr   Cpmin    Chinge    XCp    
 ------- -------- --------- --------- -------- ------- ------- -------- --------- ---------
   0.000   0.8348   0.02916   0.02028  -0.2242  0.6249  0.1051  -1.1843   0.0000   0.5168
   1.000   0.9923   0.02745   0.01841  -0.2325  0.5935  0.3310  -1.3101   0.0000   0.4811
   2.000   1.0904   0.02997   0.02097  -0.2282  0.5672  0.5376  -1.4134   0.0000   0.4546
   3.000   1.1887   0.03273   0.02398  -0.2273  0.5481  0.6562  -1.4989   0.0000   0.4351
   4.000   1.2707   0.03532   0.02652  -0.2217  0.5304  1.0000  -1.5957   0.0000   0.4168
   5.000   1.3250   0.04329   0.03469  -0.2162  0.5147  1.0000  -1.6533   0.0000   0.4041
   6.000   1.3789   0.05144   0.04294  -0.2108  0.4987  1.0000  -1.7268   0.0000   0.3925
   7.000   1.1616   0.08967   0.08212  -0.1984  0.4859  1.0000  -1.4238   0.0000   0.4098
   8.000   1.1612   0.11259   0.10516  -0.2014  0.4894  1.0000  -1.3937   0.0000   0.4114
   9.000   1.0201   0.13883   0.13194  -0.2071  0.5099  1.0000  -1.1354   0.0000   0.4406
  10.000   1.1550   0.15707   0.15000  -0.2090  0.4897  1.0000  -1.3324   0.0000   0.4164
  11.000   1.1866   0.16719   0.16032  -0.2073  0.4548  1.0000  -1.3965   0.0000   0.4084
  15.000   1.2129   0.21187   0.20559  -0.2187  0.3301  1.0000  -1.5027   0.0000   0.4067


