XFLR5 v6.09.05 beta

 Calculated polar for: -5s1223

 1 1 Reynolds number fixed          Mach number fixed         

 xtrf =   1.000 (top)        1.000 (bottom)
 Mach =   0.000     Re =     0.275 e 6     Ncrit =   9.000

  alpha     CL        CD       CDp       Cm    Top Xtr Bot Xtr   Cpmin    Chinge    XCp    
 ------- -------- --------- --------- -------- ------- ------- -------- --------- ---------
   0.000   0.8761   0.01630   0.00799  -0.2269  0.4665  0.0347  -1.2671   0.0000   0.5065
   1.000   1.0140   0.01583   0.00724  -0.2319  0.4442  0.0452  -1.3944   0.0000   0.4745
   2.000   1.1516   0.01581   0.00757  -0.2370  0.4272  0.3388  -1.5385   0.0000   0.4501
   3.000   1.2729   0.01673   0.00850  -0.2386  0.4135  0.4140  -1.6722   0.0000   0.4302
   4.000   1.3894   0.01698   0.00965  -0.2391  0.4025  0.8198  -1.8058   0.0000   0.4132
   5.000   1.4814   0.01779   0.01037  -0.2343  0.3923  1.0000  -1.9290   0.0000   0.3976
   6.000   1.5945   0.01983   0.01239  -0.2348  0.3809  1.0000  -2.0811   0.0000   0.3851
   7.000   1.6986   0.02100   0.01369  -0.2333  0.3725  1.0000  -2.2567   0.0000   0.3734
   8.000   1.7997   0.02217   0.01489  -0.2313  0.3609  1.0000  -2.4576   0.0000   0.3627
   9.000   1.8990   0.02447   0.01740  -0.2296  0.3473  1.0000  -2.7318   0.0000   0.3532
  10.000   1.9856   0.02536   0.01861  -0.2250  0.3358  1.0000  -3.0688   0.0000   0.3435
  11.000   2.0705   0.02680   0.02011  -0.2205  0.3171  1.0000  -3.4178   0.0000   0.3345
  12.000   2.1265   0.02775   0.02155  -0.2102  0.3034  1.0000  -3.7249   0.0000   0.3248
  13.000   2.1743   0.02983   0.02376  -0.1993  0.2847  1.0000  -4.0641   0.0000   0.3153
  14.000   2.2069   0.03249   0.02702  -0.1870  0.2658  1.0000  -4.3770   0.0000   0.3061
  15.000   2.2099   0.03818   0.03295  -0.1736  0.2348  1.0000  -4.6244   0.0000   0.2975
  16.000   2.1635   0.05191   0.04688  -0.1641  0.1947  1.0000  -4.7351   0.0000   0.2922
  17.000   2.0766   0.07492   0.07024  -0.1626  0.1642  1.0000  -4.7074   0.0000   0.2919
  18.000   1.9773   0.10306   0.09875  -0.1676  0.1411  1.0000  -4.6041   0.0000   0.2956
  19.000   1.9041   0.12802   0.12394  -0.1756  0.1184  1.0000  -4.5420   0.0000   0.3003
  20.000   1.8603   0.14783   0.14390  -0.1844  0.0982  1.0000  -4.5708   0.0000   0.3044
  21.000   1.8366   0.16548   0.16170  -0.1928  0.0837  1.0000  -4.6901   0.0000   0.3074
  22.000   1.8233   0.18244   0.17890  -0.2011  0.0734  1.0000  -5.0554   0.0000   0.3097


