XFLR5 v6.09.05 beta

 Calculated polar for: -5s1223

 1 1 Reynolds number fixed          Mach number fixed         

 xtrf =   1.000 (top)        1.000 (bottom)
 Mach =   0.000     Re =     0.095 e 6     Ncrit =   9.000

  alpha     CL        CD       CDp       Cm    Top Xtr Bot Xtr   Cpmin    Chinge    XCp    
 ------- -------- --------- --------- -------- ------- ------- -------- --------- ---------
   0.000   0.8550   0.02487   0.01578  -0.2256  0.5778  0.0847  -1.2173   0.0000   0.5116
   2.000   1.1212   0.02559   0.01648  -0.2326  0.5248  0.4809  -1.4620   0.0000   0.4524
   3.000   1.2333   0.02700   0.01803  -0.2330  0.5071  0.5858  -1.5709   0.0000   0.4323
   4.000   1.3161   0.02911   0.02037  -0.2266  0.4901  1.0000  -1.6715   0.0000   0.4141
   5.000   1.4086   0.03274   0.02412  -0.2242  0.4772  1.0000  -1.7791   0.0000   0.3996
   6.000   1.5003   0.03668   0.02808  -0.2216  0.4628  1.0000  -1.9073   0.0000   0.3865
   7.000   1.5729   0.04311   0.03482  -0.2170  0.4493  1.0000  -2.0345   0.0000   0.3752
   8.000   1.6045   0.05081   0.04309  -0.2074  0.4318  1.0000  -2.1225   0.0000   0.3649
   9.000   1.6842   0.05703   0.04931  -0.2038  0.4170  1.0000  -2.3096   0.0000   0.3548
  15.000   1.3864   0.17434   0.16894  -0.1942  0.2568  1.0000  -2.1688   0.0000   0.3634
  16.000   1.3902   0.18829   0.18311  -0.2001  0.2295  1.0000  -2.1995   0.0000   0.3651


