XFLR5 v6.09.05 beta

 Calculated polar for: -5s1223

 1 1 Reynolds number fixed          Mach number fixed         

 xtrf =   1.000 (top)        1.000 (bottom)
 Mach =   0.000     Re =     0.100 e 6     Ncrit =   9.000

  alpha     CL        CD       CDp       Cm    Top Xtr Bot Xtr   Cpmin    Chinge    XCp    
 ------- -------- --------- --------- -------- ------- ------- -------- --------- ---------
   0.000   0.8581   0.02418   0.01506  -0.2260  0.5708  0.0823  -1.2227   0.0000   0.5111
   2.000   1.1229   0.02479   0.01579  -0.2328  0.5189  0.4713  -1.4661   0.0000   0.4522
   3.000   1.2392   0.02608   0.01707  -0.2337  0.5009  0.5754  -1.5821   0.0000   0.4320
   4.000   1.3184   0.02796   0.01940  -0.2267  0.4855  1.0000  -1.6772   0.0000   0.4138
   5.000   1.4163   0.03139   0.02280  -0.2251  0.4713  1.0000  -1.7924   0.0000   0.3992
   6.000   1.5171   0.03506   0.02631  -0.2238  0.4577  1.0000  -1.9330   0.0000   0.3862
   7.000   1.5806   0.04133   0.03318  -0.2176  0.4440  1.0000  -2.0479   0.0000   0.3748
   8.000   1.6509   0.04618   0.03828  -0.2122  0.4277  1.0000  -2.1929   0.0000   0.3639
   9.000   1.6782   0.05525   0.04779  -0.2024  0.4124  1.0000  -2.3055   0.0000   0.3543
  10.000   1.4489   0.08908   0.08255  -0.1824  0.3862  1.0000  -2.0075   0.0000   0.3584
  12.000   1.2808   0.14585   0.13990  -0.1936  0.3236  1.0000  -1.7204   0.0000   0.3812


