XFLR5 v6.09.05 beta

 Calculated polar for: -5s1223

 1 1 Reynolds number fixed          Mach number fixed         

 xtrf =   1.000 (top)        1.000 (bottom)
 Mach =   0.000     Re =     0.055 e 6     Ncrit =   9.000

  alpha     CL        CD       CDp       Cm    Top Xtr Bot Xtr   Cpmin    Chinge    XCp    
 ------- -------- --------- --------- -------- ------- ------- -------- --------- ---------
   0.000   0.7902   0.03503   0.02662  -0.2180  0.6695  0.1263  -1.1395   0.0000   0.5244
   1.000   0.9636   0.03234   0.02332  -0.2306  0.6358  0.3218  -1.2674   0.0000   0.4864
   2.000   1.0302   0.03561   0.02708  -0.2205  0.6074  0.5789  -1.3373   0.0000   0.4598
   3.000   1.1084   0.04061   0.03222  -0.2186  0.5870  0.6930  -1.3950   0.0000   0.4416
   4.000   1.1825   0.04542   0.03682  -0.2148  0.5684  1.0000  -1.4703   0.0000   0.4246
   5.000   1.0420   0.07254   0.06474  -0.2026  0.5564  1.0000  -1.2753   0.0000   0.4368
   6.000   1.0158   0.09445   0.08661  -0.2045  0.5609  1.0000  -1.2004   0.0000   0.4428
   7.000   0.9052   0.12099   0.11374  -0.2105  0.6435  1.0000  -0.9956   0.0000   0.4736
   8.000   0.9569   0.13226   0.12471  -0.2101  0.6070  1.0000  -1.0469   0.0000   0.4589
   9.000   1.0149   0.14424   0.13648  -0.2099  0.5688  1.0000  -1.1159   0.0000   0.4445
  10.000   1.0483   0.15561   0.14780  -0.2092  0.5328  1.0000  -1.1583   0.0000   0.4356
  11.000   1.0824   0.16717   0.15940  -0.2093  0.4965  1.0000  -1.2065   0.0000   0.4277
  12.000   1.1079   0.17843   0.17087  -0.2104  0.4620  1.0000  -1.2513   0.0000   0.4224
  13.000   1.1294   0.18967   0.18223  -0.2132  0.4313  1.0000  -1.2942   0.0000   0.4195
  14.000   1.1587   0.20211   0.19480  -0.2163  0.4006  1.0000  -1.3633   0.0000   0.4155
  15.000   1.1963   0.21864   0.21152  -0.2193  0.3772  1.0000  -1.4480   0.0000   0.4102
  16.000   1.2747   0.24738   0.24076  -0.2194  0.3484  1.0000  -1.6173   0.0000   0.3968
  19.000   1.2719   0.28344   0.27747  -0.2385  0.2728  1.0000  -1.5047   0.0000   0.4058


