XFLR5 v6.09.05 beta

 Calculated polar for: -5s1223

 1 1 Reynolds number fixed          Mach number fixed         

 xtrf =   1.000 (top)        1.000 (bottom)
 Mach =   0.000     Re =     0.090 e 6     Ncrit =   9.000

  alpha     CL        CD       CDp       Cm    Top Xtr Bot Xtr   Cpmin    Chinge    XCp    
 ------- -------- --------- --------- -------- ------- ------- -------- --------- ---------
   0.000   0.8517   0.02582   0.01669  -0.2251  0.5857  0.0868  -1.2118   0.0000   0.5121
   1.000   1.0106   0.02372   0.01459  -0.2341  0.5553  0.3022  -1.3424   0.0000   0.4781
   2.000   1.1176   0.02601   0.01688  -0.2319  0.5315  0.4906  -1.4563   0.0000   0.4525
   3.000   1.2279   0.02798   0.01901  -0.2323  0.5142  0.5976  -1.5606   0.0000   0.4327
   4.000   1.3087   0.02929   0.02062  -0.2254  0.4970  1.0000  -1.6599   0.0000   0.4142
   5.000   1.4020   0.03413   0.02539  -0.2236  0.4837  1.0000  -1.7677   0.0000   0.3999
   6.000   1.4817   0.03901   0.03049  -0.2196  0.4685  1.0000  -1.8784   0.0000   0.3872
   7.000   1.5709   0.04488   0.03637  -0.2172  0.4541  1.0000  -2.0282   0.0000   0.3755
   8.000   1.5049   0.05983   0.05242  -0.1983  0.4355  1.0000  -1.9789   0.0000   0.3678
   9.000   1.6195   0.06206   0.05452  -0.1976  0.4214  1.0000  -2.2073   0.0000   0.3560
  12.000   1.2251   0.15773   0.15158  -0.1989  0.3413  1.0000  -1.5630   0.0000   0.3932
  14.000   1.3202   0.17402   0.16811  -0.1975  0.2880  1.0000  -1.9012   0.0000   0.3758
  15.000   1.3314   0.18598   0.18048  -0.2018  0.2593  1.0000  -1.9615   0.0000   0.3758
  16.000   1.3392   0.20037   0.19508  -0.2076  0.2324  1.0000  -1.9855   0.0000   0.3771


