XFLR5 v6.09.05 beta

 Calculated polar for: -5s1223

 1 1 Reynolds number fixed          Mach number fixed         

 xtrf =   1.000 (top)        1.000 (bottom)
 Mach =   0.000     Re =     0.255 e 6     Ncrit =   9.000

  alpha     CL        CD       CDp       Cm    Top Xtr Bot Xtr   Cpmin    Chinge    XCp    
 ------- -------- --------- --------- -------- ------- ------- -------- --------- ---------
   0.000   0.8745   0.01676   0.00840  -0.2267  0.4728  0.0366  -1.2643   0.0000   0.5067
   1.000   1.0147   0.01628   0.00752  -0.2321  0.4488  0.0469  -1.3926   0.0000   0.4746
   2.000   1.1499   0.01626   0.00798  -0.2366  0.4329  0.3485  -1.5347   0.0000   0.4501
   3.000   1.2733   0.01740   0.00903  -0.2388  0.4166  0.4243  -1.6690   0.0000   0.4303
   4.000   1.3840   0.01755   0.01015  -0.2379  0.4072  0.8543  -1.7973   0.0000   0.4131
   5.000   1.4795   0.01841   0.01091  -0.2339  0.3969  1.0000  -1.9232   0.0000   0.3977
   6.000   1.5925   0.02066   0.01305  -0.2345  0.3836  1.0000  -2.0760   0.0000   0.3851
   7.000   1.6962   0.02196   0.01452  -0.2330  0.3763  1.0000  -2.2507   0.0000   0.3734
   8.000   1.7961   0.02321   0.01589  -0.2308  0.3648  1.0000  -2.4494   0.0000   0.3627
   9.000   1.8960   0.02556   0.01834  -0.2293  0.3495  1.0000  -2.7233   0.0000   0.3532
  10.000   1.9817   0.02660   0.01978  -0.2245  0.3393  1.0000  -3.0574   0.0000   0.3435
  11.000   2.0632   0.02735   0.02071  -0.2190  0.3234  1.0000  -3.4010   0.0000   0.3343
  12.000   2.1241   0.02891   0.02265  -0.2101  0.3064  1.0000  -3.7153   0.0000   0.3248
  13.000   2.1679   0.03062   0.02456  -0.1983  0.2891  1.0000  -4.0456   0.0000   0.3152
  14.000   2.1986   0.03363   0.02817  -0.1859  0.2696  1.0000  -4.3525   0.0000   0.3060
  15.000   2.2053   0.03898   0.03384  -0.1729  0.2429  1.0000  -4.6070   0.0000   0.2974
  16.000   2.1624   0.05183   0.04690  -0.1631  0.2057  1.0000  -4.7276   0.0000   0.2918
  17.000   2.0727   0.07488   0.07022  -0.1614  0.1742  1.0000  -4.6922   0.0000   0.2915
  18.000   1.9773   0.10223   0.09792  -0.1663  0.1488  1.0000  -4.6002   0.0000   0.2950
  19.000   1.9060   0.12679   0.12270  -0.1741  0.1249  1.0000  -4.5431   0.0000   0.2995
  20.000   1.8597   0.14705   0.14311  -0.1832  0.1036  1.0000  -4.5639   0.0000   0.3039
  21.000   1.8324   0.16537   0.16151  -0.1922  0.0861  1.0000  -4.6699   0.0000   0.3073
  22.000   1.8240   0.18142   0.17794  -0.1999  0.0764  1.0000  -5.0501   0.0000   0.3090


