XFLR5 v6.09.05 beta

 Calculated polar for: -5s1223

 1 1 Reynolds number fixed          Mach number fixed         

 xtrf =   1.000 (top)        1.000 (bottom)
 Mach =   0.000     Re =     0.330 e 6     Ncrit =   9.000

  alpha     CL        CD       CDp       Cm    Top Xtr Bot Xtr   Cpmin    Chinge    XCp    
 ------- -------- --------- --------- -------- ------- ------- -------- --------- ---------
   0.000   0.8751   0.01594   0.00785  -0.2264  0.4514  0.0305  -1.2701   0.0000   0.5061
   1.000   1.0179   0.01480   0.00645  -0.2327  0.4319  0.0418  -1.4027   0.0000   0.4744
   2.000   1.1563   0.01499   0.00692  -0.2379  0.4150  0.3140  -1.5459   0.0000   0.4500
   3.000   1.2744   0.01542   0.00749  -0.2387  0.4034  0.3949  -1.6810   0.0000   0.4300
   4.000   1.3982   0.01602   0.00850  -0.2411  0.3911  0.6279  -1.8217   0.0000   0.4135
   5.000   1.4889   0.01693   0.00979  -0.2359  0.3810  1.0000  -1.9402   0.0000   0.3979
   6.000   1.5980   0.01790   0.01083  -0.2352  0.3732  1.0000  -2.0924   0.0000   0.3849
   7.000   1.7039   0.01899   0.01192  -0.2340  0.3633  1.0000  -2.2701   0.0000   0.3733
   8.000   1.8093   0.02114   0.01401  -0.2334  0.3486  1.0000  -2.4734   0.0000   0.3631
   9.000   1.9041   0.02195   0.01520  -0.2301  0.3411  1.0000  -2.7485   0.0000   0.3530
  10.000   1.9930   0.02281   0.01619  -0.2259  0.3280  1.0000  -3.0916   0.0000   0.3435
  11.000   2.0725   0.02419   0.01781  -0.2202  0.3114  1.0000  -3.4308   0.0000   0.3342
  12.000   2.1332   0.02534   0.01926  -0.2109  0.2965  1.0000  -3.7499   0.0000   0.3247
  13.000   2.1859   0.02747   0.02169  -0.2009  0.2795  1.0000  -4.0998   0.0000   0.3155
  14.000   2.2204   0.03049   0.02498  -0.1890  0.2539  1.0000  -4.4191   0.0000   0.3064
  15.000   2.2111   0.03758   0.03212  -0.1746  0.2057  1.0000  -4.6398   0.0000   0.2978
  16.000   2.1548   0.05357   0.04828  -0.1659  0.1647  1.0000  -4.7217   0.0000   0.2933
  17.000   2.0641   0.07795   0.07308  -0.1654  0.1406  1.0000  -4.6799   0.0000   0.2937
  18.000   1.9693   0.10585   0.10139  -0.1706  0.1218  1.0000  -4.5877   0.0000   0.2974
  19.000   1.9002   0.13035   0.12615  -0.1784  0.1034  1.0000  -4.5378   0.0000   0.3020
  20.000   1.8596   0.14963   0.14558  -0.1868  0.0870  1.0000  -4.5722   0.0000   0.3058
  21.000   1.8458   0.16557   0.16180  -0.1943  0.0763  1.0000  -4.7350   0.0000   0.3076
  22.000   1.8324   0.18243   0.17892  -0.2024  0.0673  1.0000  -5.1558   0.0000   0.3098


