XFLR5 v6.09.05 beta

 Calculated polar for: -5s1223

 1 1 Reynolds number fixed          Mach number fixed         

 xtrf =   1.000 (top)        1.000 (bottom)
 Mach =   0.000     Re =     0.065 e 6     Ncrit =   9.000

  alpha     CL        CD       CDp       Cm    Top Xtr Bot Xtr   Cpmin    Chinge    XCp    
 ------- -------- --------- --------- -------- ------- ------- -------- --------- ---------
   0.000   0.8343   0.03046   0.02138  -0.2246  0.6379  0.1101  -1.1802   0.0000   0.5174
   1.000   0.9857   0.02865   0.01965  -0.2319  0.6052  0.3428  -1.3001   0.0000   0.4821
   2.000   1.0713   0.03170   0.02296  -0.2259  0.5784  0.5484  -1.3873   0.0000   0.4563
   3.000   1.1779   0.03442   0.02560  -0.2260  0.5600  0.6793  -1.4830   0.0000   0.4358
   4.000   1.2366   0.03854   0.03004  -0.2184  0.5408  1.0000  -1.5476   0.0000   0.4192
   5.000   1.3242   0.04530   0.03636  -0.2168  0.5256  1.0000  -1.6476   0.0000   0.4048
   6.000   0.9626   0.09865   0.09184  -0.2070  0.5721  1.0000  -1.1145   0.0000   0.4568
   7.000   0.9914   0.11914   0.11218  -0.2131  0.6030  1.0000  -1.1059   0.0000   0.4556
   8.000   1.0192   0.12991   0.12280  -0.2107  0.5678  1.0000  -1.1338   0.0000   0.4458
   9.000   1.0585   0.14116   0.13393  -0.2090  0.5311  1.0000  -1.1857   0.0000   0.4349
  10.000   1.0843   0.15244   0.14520  -0.2078  0.4953  1.0000  -1.2234   0.0000   0.4275
  11.000   1.1002   0.16373   0.15656  -0.2080  0.4614  1.0000  -1.2442   0.0000   0.4231
  12.000   1.1243   0.17530   0.16833  -0.2093  0.4279  1.0000  -1.2890   0.0000   0.4185
  13.000   1.1453   0.18742   0.18058  -0.2125  0.4003  1.0000  -1.3316   0.0000   0.4161
  14.000   1.2030   0.20640   0.19970  -0.2139  0.3800  1.0000  -1.4713   0.0000   0.4063
  15.000   1.2672   0.22609   0.21958  -0.2141  0.3482  1.0000  -1.6348   0.0000   0.3953
  16.000   1.3106   0.24193   0.23588  -0.2149  0.3162  1.0000  -1.7413   0.0000   0.3880


