XFLR5 v6.09.05 beta

 Calculated polar for: -5s1223

 1 1 Reynolds number fixed          Mach number fixed         

 xtrf =   1.000 (top)        1.000 (bottom)
 Mach =   0.000     Re =     0.085 e 6     Ncrit =   9.000

  alpha     CL        CD       CDp       Cm    Top Xtr Bot Xtr   Cpmin    Chinge    XCp    
 ------- -------- --------- --------- -------- ------- ------- -------- --------- ---------
   0.000   0.8554   0.02595   0.01670  -0.2265  0.5945  0.0899  -1.2106   0.0000   0.5127
   1.000   1.0106   0.02466   0.01535  -0.2343  0.5631  0.3197  -1.3397   0.0000   0.4784
   2.000   1.1107   0.02683   0.01781  -0.2310  0.5390  0.4992  -1.4446   0.0000   0.4531
   3.000   1.2231   0.02896   0.01994  -0.2317  0.5217  0.6125  -1.5520   0.0000   0.4330
   4.000   1.2964   0.03072   0.02218  -0.2240  0.5039  1.0000  -1.6401   0.0000   0.4148
   5.000   1.3986   0.03571   0.02675  -0.2235  0.4896  1.0000  -1.7603   0.0000   0.4003
   6.000   1.4585   0.04179   0.03333  -0.2172  0.4751  1.0000  -1.8441   0.0000   0.3880
   7.000   1.5374   0.04714   0.03885  -0.2134  0.4601  1.0000  -1.9787   0.0000   0.3762
   9.000   1.0603   0.13419   0.12785  -0.2056  0.4701  1.0000  -1.2073   0.0000   0.4311
  10.000   1.0931   0.14638   0.14004  -0.2055  0.4401  1.0000  -1.2543   0.0000   0.4235
  11.000   1.2443   0.15915   0.15280  -0.2021  0.4176  1.0000  -1.5320   0.0000   0.3955
  12.000   1.2646   0.16961   0.16337  -0.2007  0.3825  1.0000  -1.6079   0.0000   0.3898
  15.000   1.2649   0.19952   0.19373  -0.2113  0.2738  1.0000  -1.7079   0.0000   0.3923


