XFLR5 v6.09.05 beta

 Calculated polar for: -5s1223

 1 1 Reynolds number fixed          Mach number fixed         

 xtrf =   1.000 (top)        1.000 (bottom)
 Mach =   0.000     Re =     0.215 e 6     Ncrit =   9.000

  alpha     CL        CD       CDp       Cm    Top Xtr Bot Xtr   Cpmin    Chinge    XCp    
 ------- -------- --------- --------- -------- ------- ------- -------- --------- ---------
   0.000   0.8707   0.01822   0.00962  -0.2261  0.4860  0.0426  -1.2577   0.0000   0.5071
   1.000   1.0148   0.01701   0.00798  -0.2323  0.4618  0.0540  -1.3884   0.0000   0.4748
   2.000   1.1484   0.01756   0.00906  -0.2365  0.4451  0.3694  -1.5265   0.0000   0.4504
   3.000   1.2678   0.01819   0.00970  -0.2376  0.4307  0.4440  -1.6586   0.0000   0.4303
   4.000   1.3668   0.01902   0.01134  -0.2343  0.4166  0.9287  -1.7739   0.0000   0.4127
   5.000   1.4746   0.02023   0.01250  -0.2332  0.4078  1.0000  -1.9084   0.0000   0.3978
   6.000   1.5832   0.02172   0.01400  -0.2326  0.3966  1.0000  -2.0599   0.0000   0.3849
   7.000   1.6902   0.02458   0.01677  -0.2323  0.3832  1.0000  -2.2358   0.0000   0.3736
   8.000   1.7865   0.02597   0.01845  -0.2295  0.3742  1.0000  -2.4283   0.0000   0.3628
   9.000   1.8816   0.02722   0.01998  -0.2266  0.3607  1.0000  -2.6908   0.0000   0.3528
  10.000   1.9728   0.02993   0.02285  -0.2236  0.3467  1.0000  -3.0304   0.0000   0.3437
  11.000   2.0484   0.03086   0.02416  -0.2171  0.3320  1.0000  -3.3594   0.0000   0.3343
  12.000   2.1196   0.03199   0.02549  -0.2101  0.3129  1.0000  -3.6950   0.0000   0.3252
  13.000   2.1530   0.03358   0.02757  -0.1965  0.2964  1.0000  -3.9988   0.0000   0.3151
  14.000   2.1784   0.03667   0.03104  -0.1833  0.2777  1.0000  -4.2927   0.0000   0.3057
  15.000   2.1814   0.04181   0.03654  -0.1699  0.2538  1.0000  -4.5373   0.0000   0.2970
  16.000   2.1479   0.05323   0.04840  -0.1606  0.2245  1.0000  -4.6777   0.0000   0.2913
  17.000   2.0718   0.07401   0.06959  -0.1587  0.1936  1.0000  -4.6778   0.0000   0.2903
  18.000   1.9778   0.10068   0.09656  -0.1634  0.1653  1.0000  -4.5887   0.0000   0.2935
  19.000   1.9083   0.12457   0.12064  -0.1709  0.1393  1.0000  -4.5348   0.0000   0.2977
  20.000   1.8665   0.14375   0.13994  -0.1794  0.1165  1.0000  -4.5748   0.0000   0.3015
  21.000   1.8375   0.16233   0.15867  -0.1886  0.0979  1.0000  -4.6785   0.0000   0.3051


