XFLR5 v6.09.05 beta

 Calculated polar for: -5s1223

 1 1 Reynolds number fixed          Mach number fixed         

 xtrf =   1.000 (top)        1.000 (bottom)
 Mach =   0.000     Re =     0.235 e 6     Ncrit =   9.000

  alpha     CL        CD       CDp       Cm    Top Xtr Bot Xtr   Cpmin    Chinge    XCp    
 ------- -------- --------- --------- -------- ------- ------- -------- --------- ---------
   0.000   0.8728   0.01737   0.00892  -0.2264  0.4793  0.0391  -1.2612   0.0000   0.5069
   1.000   1.0176   0.01677   0.00780  -0.2329  0.4529  0.0502  -1.3920   0.0000   0.4748
   2.000   1.1486   0.01691   0.00851  -0.2364  0.4387  0.3571  -1.5304   0.0000   0.4502
   3.000   1.2700   0.01768   0.00922  -0.2381  0.4232  0.4338  -1.6647   0.0000   0.4303
   4.000   1.3768   0.01822   0.01070  -0.2364  0.4121  0.8864  -1.7870   0.0000   0.4129
   5.000   1.4772   0.01923   0.01164  -0.2336  0.4020  1.0000  -1.9162   0.0000   0.3977
   6.000   1.5871   0.02070   0.01303  -0.2332  0.3910  1.0000  -2.0695   0.0000   0.3848
   7.000   1.6938   0.02316   0.01554  -0.2327  0.3800  1.0000  -2.2441   0.0000   0.3735
   8.000   1.7916   0.02448   0.01708  -0.2302  0.3691  1.0000  -2.4394   0.0000   0.3628
   9.000   1.8893   0.02572   0.01847  -0.2277  0.3560  1.0000  -2.7099   0.0000   0.3528
  10.000   1.9774   0.02808   0.02115  -0.2240  0.3431  1.0000  -3.0447   0.0000   0.3436
  11.000   2.0576   0.02885   0.02223  -0.2183  0.3276  1.0000  -3.3841   0.0000   0.3343
  12.000   2.1221   0.03029   0.02393  -0.2101  0.3095  1.0000  -3.7061   0.0000   0.3250
  13.000   2.1616   0.03185   0.02582  -0.1975  0.2928  1.0000  -4.0256   0.0000   0.3151
  14.000   2.1887   0.03502   0.02953  -0.1846  0.2737  1.0000  -4.3237   0.0000   0.3058
  15.000   2.1941   0.04029   0.03514  -0.1715  0.2489  1.0000  -4.5739   0.0000   0.2972
  16.000   2.1609   0.05191   0.04711  -0.1621  0.2162  1.0000  -4.7175   0.0000   0.2914
  17.000   2.0775   0.07378   0.06927  -0.1601  0.1841  1.0000  -4.7003   0.0000   0.2908
  18.000   1.9798   0.10115   0.09693  -0.1649  0.1572  1.0000  -4.6022   0.0000   0.2942
  19.000   1.9070   0.12568   0.12160  -0.1726  0.1317  1.0000  -4.5403   0.0000   0.2987
  20.000   1.8608   0.14579   0.14182  -0.1817  0.1093  1.0000  -4.5630   0.0000   0.3030
  21.000   1.8319   0.16462   0.16083  -0.1910  0.0916  1.0000  -4.6632   0.0000   0.3067


