XFLR5 v6.09.05 beta

 Calculated polar for: -5s1223

 1 1 Reynolds number fixed          Mach number fixed         

 xtrf =   1.000 (top)        1.000 (bottom)
 Mach =   0.000     Re =     0.030 e 6     Ncrit =   9.000

  alpha     CL        CD       CDp       Cm    Top Xtr Bot Xtr   Cpmin    Chinge    XCp    
 ------- -------- --------- --------- -------- ------- ------- -------- --------- ---------
   0.000  -0.1347   0.11045   0.10530  -0.0308  0.8415  0.4077  -0.8594   0.0000   0.0065
   4.000   0.2821   0.09282   0.08600  -0.1455  0.9944  0.2001  -0.9660   0.0000   0.7631
   5.000   0.5073   0.10382   0.09573  -0.1816  0.9747  0.2846  -0.8499   0.0000   0.6028
   6.000   0.6222   0.11145   0.10416  -0.1885  0.9454  1.0000  -0.8110   0.0000   0.5458
   7.000   0.7414   0.12561   0.11648  -0.2027  0.8839  1.0000  -0.8179   0.0000   0.5147
   8.000   0.8306   0.13999   0.13007  -0.2092  0.8304  1.0000  -0.8924   0.0000   0.4916
  10.000   0.9244   0.15933   0.14893  -0.2097  0.7204  1.0000  -0.9747   0.0000   0.4633
  11.000   0.9939   0.17538   0.16487  -0.2133  0.6759  1.0000  -1.0571   0.0000   0.4494
  12.000   1.0353   0.18876   0.17829  -0.2148  0.6334  1.0000  -1.1121   0.0000   0.4405
  13.000   1.0617   0.19652   0.18634  -0.2160  0.5905  1.0000  -1.1561   0.0000   0.4347
  14.000   1.0978   0.20801   0.19797  -0.2185  0.5470  1.0000  -1.2201   0.0000   0.4284
  15.000   1.1338   0.22160   0.21177  -0.2214  0.5058  1.0000  -1.2989   0.0000   0.4227
  16.000   1.1627   0.23649   0.22692  -0.2252  0.4730  1.0000  -1.3456   0.0000   0.4191
  17.000   1.1900   0.25242   0.24313  -0.2289  0.4377  1.0000  -1.3710   0.0000   0.4158
  18.000   1.2146   0.27027   0.26160  -0.2329  0.4072  1.0000  -1.4067   0.0000   0.4131
  19.000   1.2581   0.29998   0.29167  -0.2358  0.3814  1.0000  -1.4732   0.0000   0.4066
  21.000   1.2541   0.32633   0.31866  -0.2441  0.3298  1.0000  -1.4045   0.0000   0.4091
  22.000   1.2751   0.35585   0.34857  -0.2454  0.3146  1.0000  -1.4403   0.0000   0.4045
  23.000   1.1936   0.36271   0.35637  -0.2308  0.2860  1.0000  -1.3345   0.0000   0.4039


