XFLR5 v6.09.05 beta

 Calculated polar for: 0s1223

 1 1 Reynolds number fixed          Mach number fixed         

 xtrf =   1.000 (top)        1.000 (bottom)
 Mach =   0.000     Re =     0.185 e 6     Ncrit =   9.000

  alpha     CL        CD       CDp       Cm    Top Xtr Bot Xtr   Cpmin    Chinge    XCp    
 ------- -------- --------- --------- -------- ------- ------- -------- --------- ---------
   0.000   1.1907   0.01839   0.00969  -0.2722  0.4854  0.2645  -1.4902   0.0000   0.4762
   1.000   1.2999   0.01975   0.01106  -0.2709  0.4647  0.3840  -1.6160   0.0000   0.4544
   2.000   1.4280   0.02119   0.01238  -0.2741  0.4483  0.4503  -1.7546   0.0000   0.4363
   3.000   1.5434   0.02216   0.01372  -0.2746  0.4333  0.6121  -1.8879   0.0000   0.4206
   4.000   1.6413   0.02362   0.01538  -0.2715  0.4203  1.0000  -2.0159   0.0000   0.4064
   5.000   1.7465   0.02590   0.01782  -0.2705  0.4109  1.0000  -2.1622   0.0000   0.3941
   6.000   1.8422   0.02783   0.01986  -0.2675  0.3990  1.0000  -2.3306   0.0000   0.3826
   7.000   1.9416   0.03021   0.02217  -0.2656  0.3858  1.0000  -2.5314   0.0000   0.3722
   8.000   2.0194   0.03296   0.02551  -0.2596  0.3735  1.0000  -2.7790   0.0000   0.3621
   9.000   2.0933   0.03482   0.02764  -0.2527  0.3597  1.0000  -3.0961   0.0000   0.3522
  10.000   2.1612   0.03761   0.03077  -0.2454  0.3439  1.0000  -3.4140   0.0000   0.3429
  11.000   2.1829   0.03925   0.03283  -0.2291  0.3274  1.0000  -3.6591   0.0000   0.3322
  12.000   2.2119   0.04216   0.03604  -0.2158  0.3098  1.0000  -3.9458   0.0000   0.3225
  13.000   2.2171   0.04626   0.04064  -0.2006  0.2920  1.0000  -4.1971   0.0000   0.3131
  14.000   2.2059   0.05320   0.04819  -0.1870  0.2720  1.0000  -4.4071   0.0000   0.3048
  15.000   2.1836   0.06343   0.05881  -0.1773  0.2470  1.0000  -4.5827   0.0000   0.2985


