XFLR5 v6.09.05 beta

 Calculated polar for: 0s1223

 1 1 Reynolds number fixed          Mach number fixed         

 xtrf =   1.000 (top)        1.000 (bottom)
 Mach =   0.000     Re =     0.225 e 6     Ncrit =   9.000

  alpha     CL        CD       CDp       Cm    Top Xtr Bot Xtr   Cpmin    Chinge    XCp    
 ------- -------- --------- --------- -------- ------- ------- -------- --------- ---------
   0.000   1.1700   0.01747   0.00862  -0.2673  0.4694  0.0595  -1.4838   0.0000   0.4760
   1.000   1.3008   0.01869   0.01016  -0.2710  0.4485  0.3601  -1.6226   0.0000   0.4542
   2.000   1.4215   0.01941   0.01097  -0.2725  0.4337  0.4259  -1.7597   0.0000   0.4360
   3.000   1.5496   0.02110   0.01273  -0.2759  0.4167  0.5780  -1.9027   0.0000   0.4207
   4.000   1.6393   0.02168   0.01392  -0.2707  0.4086  1.0000  -2.0237   0.0000   0.4060
   5.000   1.7451   0.02330   0.01554  -0.2696  0.3979  1.0000  -2.1733   0.0000   0.3936
   6.000   1.8521   0.02551   0.01761  -0.2691  0.3852  1.0000  -2.3522   0.0000   0.3825
   7.000   1.9432   0.02761   0.01998  -0.2654  0.3752  1.0000  -2.5424   0.0000   0.3719
   8.000   2.0244   0.02909   0.02181  -0.2595  0.3622  1.0000  -2.8015   0.0000   0.3616
   9.000   2.1140   0.03195   0.02475  -0.2562  0.3471  1.0000  -3.1459   0.0000   0.3525
  10.000   2.1534   0.03342   0.02680  -0.2425  0.3351  1.0000  -3.4155   0.0000   0.3419
  11.000   2.2076   0.03531   0.02869  -0.2325  0.3148  1.0000  -3.7234   0.0000   0.3323
  12.000   2.2201   0.03837   0.03242  -0.2161  0.3017  1.0000  -3.9813   0.0000   0.3221
  13.000   2.2454   0.04223   0.03648  -0.2039  0.2827  1.0000  -4.2794   0.0000   0.3132
  14.000   2.2396   0.04865   0.04357  -0.1904  0.2620  1.0000  -4.5061   0.0000   0.3049
  15.000   2.2172   0.05940   0.05468  -0.1803  0.2333  1.0000  -4.6847   0.0000   0.2985
  16.000   2.1504   0.07888   0.07438  -0.1757  0.1983  1.0000  -4.7287   0.0000   0.2960


