XFLR5 v6.09.05 beta

 Calculated polar for: 0s1223

 1 1 Reynolds number fixed          Mach number fixed         

 xtrf =   1.000 (top)        1.000 (bottom)
 Mach =   0.000     Re =     0.305 e 6     Ncrit =   9.000

  alpha     CL        CD       CDp       Cm    Top Xtr Bot Xtr   Cpmin    Chinge    XCp    
 ------- -------- --------- --------- -------- ------- ------- -------- --------- ---------
   0.000   1.1595   0.01618   0.00781  -0.2649  0.4463  0.0451  -1.4848   0.0000   0.4760
   1.000   1.2926   0.01669   0.00863  -0.2691  0.4272  0.3340  -1.6261   0.0000   0.4540
   2.000   1.4175   0.01769   0.00961  -0.2715  0.4127  0.3920  -1.7674   0.0000   0.4357
   3.000   1.5320   0.01848   0.01062  -0.2717  0.4009  0.5139  -1.9046   0.0000   0.4199
   4.000   1.6394   0.01938   0.01200  -0.2705  0.3892  0.8714  -2.0389   0.0000   0.4058
   5.000   1.7478   0.02101   0.01366  -0.2699  0.3793  1.0000  -2.1880   0.0000   0.3934
   6.000   1.8437   0.02227   0.01502  -0.2667  0.3707  1.0000  -2.3550   0.0000   0.3818
   7.000   1.9311   0.02362   0.01640  -0.2619  0.3598  1.0000  -2.5432   0.0000   0.3709
   8.000   2.0283   0.02587   0.01886  -0.2597  0.3461  1.0000  -2.8216   0.0000   0.3613
   9.000   2.0884   0.02720   0.02051  -0.2497  0.3359  1.0000  -3.1183   0.0000   0.3508
  10.000   2.1460   0.02894   0.02239  -0.2398  0.3196  1.0000  -3.4223   0.0000   0.3408
  11.000   2.1939   0.03128   0.02516  -0.2289  0.3057  1.0000  -3.7150   0.0000   0.3312
  12.000   2.2330   0.03424   0.02836  -0.2174  0.2893  1.0000  -4.0313   0.0000   0.3220
  13.000   2.2655   0.03832   0.03297  -0.2065  0.2709  1.0000  -4.3448   0.0000   0.3134
  14.000   2.2669   0.04528   0.04011  -0.1942  0.2368  1.0000  -4.5926   0.0000   0.3054
  15.000   2.2221   0.05935   0.05424  -0.1834  0.1904  1.0000  -4.7186   0.0000   0.2995
  16.000   2.1406   0.08239   0.07757  -0.1801  0.1564  1.0000  -4.7199   0.0000   0.2982
  17.000   2.0472   0.10959   0.10515  -0.1843  0.1329  1.0000  -4.6464   0.0000   0.3012


