XFLR5 v6.09.05 beta

 Calculated polar for: 0s1223

 1 1 Reynolds number fixed          Mach number fixed         

 xtrf =   1.000 (top)        1.000 (bottom)
 Mach =   0.000     Re =     0.040 e 6     Ncrit =   9.000

  alpha     CL        CD       CDp       Cm    Top Xtr Bot Xtr   Cpmin    Chinge    XCp    
 ------- -------- --------- --------- -------- ------- ------- -------- --------- ---------
   1.000   0.1476   0.09141   0.08646  -0.0698  0.7099  0.4201  -0.6918   0.0000   0.7279
   3.000   0.8242   0.09035   0.08334  -0.2098  0.6672  0.6021  -1.0013   0.0000   0.5007
   4.000   0.8951   0.10382   0.09643  -0.2160  0.6732  0.7187  -1.0299   0.0000   0.4859
   7.000   0.9349   0.14669   0.13887  -0.2306  0.7192  1.0000  -0.9541   0.0000   0.4868
   8.000   1.0073   0.15991   0.15165  -0.2336  0.6789  1.0000  -1.0224   0.0000   0.4703
  10.000   1.1394   0.19354   0.18493  -0.2380  0.6010  1.0000  -1.1851   0.0000   0.4436
  11.000   1.1351   0.19469   0.18619  -0.2364  0.5585  1.0000  -1.1851   0.0000   0.4411
  12.000   1.1683   0.20552   0.19725  -0.2381  0.5190  1.0000  -1.2444   0.0000   0.4346
  13.000   1.2181   0.22439   0.21626  -0.2403  0.4873  1.0000  -1.3449   0.0000   0.4261
  14.000   1.2570   0.24172   0.23379  -0.2423  0.4516  1.0000  -1.4413   0.0000   0.4195
  15.000   1.2954   0.26136   0.25368  -0.2444  0.4163  1.0000  -1.5225   0.0000   0.4132
  16.000   1.3256   0.27823   0.27116  -0.2466  0.3828  1.0000  -1.5735   0.0000   0.4083


