XFLR5 v6.09.05 beta

 Calculated polar for: 0s1223

 1 1 Reynolds number fixed          Mach number fixed         

 xtrf =   1.000 (top)        1.000 (bottom)
 Mach =   0.000     Re =     0.210 e 6     Ncrit =   9.000

  alpha     CL        CD       CDp       Cm    Top Xtr Bot Xtr   Cpmin    Chinge    XCp    
 ------- -------- --------- --------- -------- ------- ------- -------- --------- ---------
   0.000   1.1730   0.01784   0.00888  -0.2680  0.4753  0.0641  -1.4832   0.0000   0.4761
   1.000   1.3060   0.01920   0.01054  -0.2722  0.4522  0.3707  -1.6239   0.0000   0.4544
   2.000   1.4238   0.01997   0.01144  -0.2731  0.4388  0.4348  -1.7579   0.0000   0.4361
   3.000   1.5439   0.02122   0.01279  -0.2746  0.4231  0.5876  -1.8969   0.0000   0.4205
   4.000   1.6414   0.02246   0.01453  -0.2713  0.4126  1.0000  -2.0217   0.0000   0.4062
   5.000   1.7456   0.02415   0.01631  -0.2699  0.4024  1.0000  -2.1693   0.0000   0.3938
   6.000   1.8467   0.02591   0.01800  -0.2679  0.3908  1.0000  -2.3439   0.0000   0.3824
   7.000   1.9448   0.02878   0.02100  -0.2660  0.3785  1.0000  -2.5404   0.0000   0.3722
   8.000   2.0228   0.03037   0.02306  -0.2596  0.3660  1.0000  -2.7940   0.0000   0.3618
   9.000   2.1080   0.03227   0.02500  -0.2549  0.3522  1.0000  -3.1327   0.0000   0.3523
  10.000   2.1553   0.03480   0.02813  -0.2433  0.3383  1.0000  -3.4136   0.0000   0.3422
  11.000   2.1951   0.03606   0.02951  -0.2303  0.3206  1.0000  -3.6959   0.0000   0.3320
  12.000   2.2166   0.03963   0.03364  -0.2159  0.3046  1.0000  -3.9677   0.0000   0.3222
  13.000   2.2393   0.04324   0.03746  -0.2031  0.2858  1.0000  -4.2604   0.0000   0.3132
  14.000   2.2289   0.05005   0.04503  -0.1892  0.2656  1.0000  -4.4744   0.0000   0.3049
  15.000   2.2074   0.06058   0.05595  -0.1794  0.2384  1.0000  -4.6538   0.0000   0.2985
  16.000   2.1481   0.07892   0.07458  -0.1748  0.2057  1.0000  -4.7163   0.0000   0.2957


