XFLR5 v6.09.05 beta

 Calculated polar for: 10s1223

 1 1 Reynolds number fixed          Mach number fixed         

 xtrf =   1.000 (top)        1.000 (bottom)
 Mach =   0.000     Re =     0.185 e 6     Ncrit =   9.000

  alpha     CL        CD       CDp       Cm    Top Xtr Bot Xtr   Cpmin    Chinge    XCp    
 ------- -------- --------- --------- -------- ------- ------- -------- --------- ---------
   0.000   1.4847   0.02944   0.02139  -0.2929  0.4727  0.3885  -1.7557   0.0000   0.4444
   1.000   1.6233   0.03074   0.02238  -0.2977  0.4524  0.4463  -1.9105   0.0000   0.4287
   2.000   1.7194   0.03260   0.02447  -0.2946  0.4379  0.5291  -2.0332   0.0000   0.4148
   3.000   1.8240   0.03433   0.02632  -0.2930  0.4244  0.6235  -2.1718   0.0000   0.4023
   4.000   1.9341   0.03647   0.02863  -0.2927  0.4132  0.7120  -2.3289   0.0000   0.3911
   5.000   2.0143   0.03900   0.03146  -0.2875  0.4015  0.7959  -2.4918   0.0000   0.3805


