XFLR5 v6.09.05 beta

 Calculated polar for: 10s1223

 1 1 Reynolds number fixed          Mach number fixed         

 xtrf =   1.000 (top)        1.000 (bottom)
 Mach =   0.000     Re =     0.040 e 6     Ncrit =   9.000

  alpha     CL        CD       CDp       Cm    Top Xtr Bot Xtr   Cpmin    Chinge    XCp    
 ------- -------- --------- --------- -------- ------- ------- -------- --------- ---------
   0.000   0.0508   0.11322   0.10858  -0.0617  0.7388  0.2927  -0.6826   0.0000   1.4922
   1.000   0.1357   0.11369   0.10913  -0.0767  0.7461  0.3740  -0.6236   0.0000   0.8221
   2.000   0.8452   0.12373   0.11749  -0.2338  0.7082  0.3385  -0.9184   0.0000   0.5234
   3.000   0.7911   0.14429   0.13866  -0.2275  0.8120  0.4677  -0.8239   0.0000   0.5329
   4.000   0.7963   0.14547   0.13971  -0.2167  0.7891  0.6211  -0.8181   0.0000   0.5152
   5.000   0.9024   0.15793   0.15164  -0.2294  0.7560  0.7046  -0.8915   0.0000   0.4950
   6.000   1.0155   0.17352   0.16693  -0.2421  0.7178  0.8162  -0.9862   0.0000   0.4770


