XFLR5 v6.09.05 beta

 Calculated polar for: 10s1223

 1 1 Reynolds number fixed          Mach number fixed         

 xtrf =   1.000 (top)        1.000 (bottom)
 Mach =   0.000     Re =     0.295 e 6     Ncrit =   9.000

  alpha     CL        CD       CDp       Cm    Top Xtr Bot Xtr   Cpmin    Chinge    XCp    
 ------- -------- --------- --------- -------- ------- ------- -------- --------- ---------
   0.000   1.4773   0.02884   0.02135  -0.2924  0.4352  0.3438  -1.7621   0.0000   0.4448
   1.000   1.5922   0.03017   0.02249  -0.2926  0.4164  0.3922  -1.9012   0.0000   0.4289
   2.000   1.6894   0.03189   0.02439  -0.2899  0.4059  0.4685  -2.0287   0.0000   0.4148
   3.000   1.7849   0.03358   0.02629  -0.2867  0.3946  0.5661  -2.1559   0.0000   0.4020
   4.000   1.8985   0.03472   0.02743  -0.2867  0.3811  0.6511  -2.3148   0.0000   0.3905
   5.000   1.9713   0.03677   0.02980  -0.2798  0.3742  0.7101  -2.4644   0.0000   0.3794
   6.000   2.0490   0.03904   0.03240  -0.2742  0.3631  0.7695  -2.6480   0.0000   0.3692
   7.000   2.1456   0.04098   0.03441  -0.2722  0.3468  0.8439  -2.9593   0.0000   0.3602


