XFLR5 v6.09.05 beta

 Calculated polar for: 10s1223

 1 1 Reynolds number fixed          Mach number fixed         

 xtrf =   1.000 (top)        1.000 (bottom)
 Mach =   0.000     Re =     0.025 e 6     Ncrit =   9.000

  alpha     CL        CD       CDp       Cm    Top Xtr Bot Xtr   Cpmin    Chinge    XCp    
 ------- -------- --------- --------- -------- ------- ------- -------- --------- ---------
   0.000  -0.2509   0.12707   0.12224   0.0021  0.9733  0.4640  -0.8236   0.0000   0.2501
   1.000  -0.2345   0.11996   0.11534   0.0087  0.9600  0.5715  -0.7855   0.0000   0.2795
   2.000  -0.2399   0.11237   0.10801   0.0249  0.9477  0.7646  -0.7646   0.0000   0.3473
   3.000  -0.2102   0.10301   0.09879   0.0294  0.9316  0.9152  -0.7530   0.0000   0.3821
   4.000  -0.1421   0.09946   0.09525   0.0137  0.9158  0.9150  -0.7402   0.0000   0.3385


