XFLR5 v6.09.05 beta

 Calculated polar for: 10s1223

 1 1 Reynolds number fixed          Mach number fixed         

 xtrf =   1.000 (top)        1.000 (bottom)
 Mach =   0.000     Re =     0.315 e 6     Ncrit =   9.000

  alpha     CL        CD       CDp       Cm    Top Xtr Bot Xtr   Cpmin    Chinge    XCp    
 ------- -------- --------- --------- -------- ------- ------- -------- --------- ---------
   0.000   1.4778   0.02879   0.02134  -0.2926  0.4301  0.3386  -1.7641   0.0000   0.4449
   1.000   1.5881   0.03017   0.02264  -0.2920  0.4139  0.3856  -1.8998   0.0000   0.4290
   2.000   1.6855   0.03187   0.02444  -0.2893  0.4021  0.4584  -2.0280   0.0000   0.4149
   3.000   1.7832   0.03354   0.02627  -0.2866  0.3900  0.5586  -2.1571   0.0000   0.4020
   4.000   1.8875   0.03477   0.02765  -0.2849  0.3793  0.6436  -2.3065   0.0000   0.3904
   5.000   1.9643   0.03673   0.02986  -0.2787  0.3710  0.7020  -2.4588   0.0000   0.3793
   6.000   2.0410   0.03901   0.03242  -0.2730  0.3599  0.7584  -2.6406   0.0000   0.3691
   7.000   2.1342   0.04098   0.03451  -0.2703  0.3455  0.8193  -2.9425   0.0000   0.3599


