XFLR5 v6.09.05 beta

 Calculated polar for: 10s1223

 1 1 Reynolds number fixed          Mach number fixed         

 xtrf =   1.000 (top)        1.000 (bottom)
 Mach =   0.000     Re =     0.180 e 6     Ncrit =   9.000

  alpha     CL        CD       CDp       Cm    Top Xtr Bot Xtr   Cpmin    Chinge    XCp    
 ------- -------- --------- --------- -------- ------- ------- -------- --------- ---------
   0.000   1.4865   0.02948   0.02139  -0.2931  0.4753  0.3919  -1.7562   0.0000   0.4443
   1.000   1.6297   0.03079   0.02233  -0.2988  0.4537  0.4507  -1.9146   0.0000   0.4287
   2.000   1.7228   0.03269   0.02451  -0.2952  0.4401  0.5335  -2.0344   0.0000   0.4149
   3.000   1.8229   0.03448   0.02648  -0.2927  0.4269  0.6262  -2.1692   0.0000   0.4022
   4.000   1.9415   0.03665   0.02873  -0.2941  0.4146  0.7187  -2.3344   0.0000   0.3913
   5.000   2.0183   0.03924   0.03167  -0.2883  0.4034  0.8036  -2.4944   0.0000   0.3806


