XFLR5 v6.09.05 beta

 Calculated polar for: 10s1223

 1 1 Reynolds number fixed          Mach number fixed         

 xtrf =   1.000 (top)        1.000 (bottom)
 Mach =   0.000     Re =     0.120 e 6     Ncrit =   9.000

  alpha     CL        CD       CDp       Cm    Top Xtr Bot Xtr   Cpmin    Chinge    XCp    
 ------- -------- --------- --------- -------- ------- ------- -------- --------- ---------
   0.000   1.5008   0.03067   0.02215  -0.2950  0.5198  0.4440  -1.7530   0.0000   0.4439
   1.000   1.6513   0.03251   0.02359  -0.3026  0.4954  0.5097  -1.9129   0.0000   0.4289
   2.000   1.7521   0.03499   0.02629  -0.3006  0.4780  0.5935  -2.0313   0.0000   0.4153
   3.000   1.8580   0.03743   0.02886  -0.2994  0.4622  0.6962  -2.1734   0.0000   0.4030
   4.000   1.9715   0.04100   0.03266  -0.3009  0.4490  0.8183  -2.3352   0.0000   0.3926


