XFLR5 v6.09.05 beta

 Calculated polar for: 15s1223

 1 1 Reynolds number fixed          Mach number fixed         

 xtrf =   1.000 (top)        1.000 (bottom)
 Mach =   0.000     Re =     0.330 e 6     Ncrit =   9.000

  alpha     CL        CD       CDp       Cm    Top Xtr Bot Xtr   Cpmin    Chinge    XCp    
 ------- -------- --------- --------- -------- ------- ------- -------- --------- ---------
   0.000   1.5684   0.04269   0.03554  -0.2967  0.4178  0.3496  -1.8509   0.0000   0.4352
   1.000   1.6637   0.04460   0.03754  -0.2938  0.4073  0.3969  -1.9784   0.0000   0.4207
   2.000   1.7566   0.04619   0.03916  -0.2904  0.3952  0.4669  -2.1052   0.0000   0.4075
   3.000   1.8627   0.04634   0.03943  -0.2885  0.3814  0.5462  -2.2474   0.0000   0.3952
   4.000   1.9378   0.04837   0.04171  -0.2824  0.3747  0.6037  -2.3802   0.0000   0.3840
   5.000   2.0080   0.05028   0.04382  -0.2755  0.3649  0.6515  -2.5408   0.0000   0.3733
   6.000   2.0820   0.05205   0.04576  -0.2693  0.3510  0.6920  -2.7384   0.0000   0.3634
   7.000   2.1507   0.05485   0.04890  -0.2631  0.3414  0.7286  -3.0465   0.0000   0.3541
   8.000   2.1952   0.05961   0.05401  -0.2542  0.3274  0.7613  -3.3290   0.0000   0.3451
   9.000   2.2462   0.06389   0.05847  -0.2466  0.3099  0.7931  -3.6312   0.0000   0.3367
  10.000   2.2807   0.06934   0.06435  -0.2376  0.2959  0.8242  -3.9259   0.0000   0.3285
  20.000   1.9550   0.24487   0.24213  -0.2472  0.0563  1.0000  -5.8829   0.0000   0.3169
  21.000   1.9197   0.26800   0.26545  -0.2541  0.0483  1.0000  -6.2856   0.0000   0.3189
  22.000   1.8855   0.28993   0.28779  -0.2594  0.0430  1.0000  -6.7329   0.0000   0.3200


