XFLR5 v6.09.05 beta

 Calculated polar for: 15s1223

 1 1 Reynolds number fixed          Mach number fixed         

 xtrf =   1.000 (top)        1.000 (bottom)
 Mach =   0.000     Re =     0.280 e 6     Ncrit =   9.000

  alpha     CL        CD       CDp       Cm    Top Xtr Bot Xtr   Cpmin    Chinge    XCp    
 ------- -------- --------- --------- -------- ------- ------- -------- --------- ---------
   0.000   1.5591   0.04271   0.03548  -0.2948  0.4331  0.3607  -1.8402   0.0000   0.4352
   1.000   1.6717   0.04352   0.03611  -0.2944  0.4159  0.4101  -1.9804   0.0000   0.4203
   2.000   1.7641   0.04523   0.03806  -0.2909  0.4053  0.4843  -2.1050   0.0000   0.4071
   3.000   1.8530   0.04666   0.03963  -0.2867  0.3941  0.5563  -2.2346   0.0000   0.3950
   4.000   1.9585   0.04681   0.03984  -0.2847  0.3810  0.6188  -2.3956   0.0000   0.3838
   5.000   2.0215   0.04924   0.04259  -0.2768  0.3733  0.6650  -2.5506   0.0000   0.3732
   6.000   2.0848   0.05193   0.04562  -0.2692  0.3614  0.7079  -2.7370   0.0000   0.3633
   7.000   2.1763   0.05377   0.04754  -0.2664  0.3462  0.7525  -3.0856   0.0000   0.3543
   8.000   2.2112   0.05884   0.05316  -0.2560  0.3348  0.7860  -3.3509   0.0000   0.3453
   9.000   2.2574   0.06292   0.05727  -0.2476  0.3145  0.8237  -3.6460   0.0000   0.3367
  19.000   1.9740   0.22429   0.22137  -0.2398  0.0709  1.0000  -5.3371   0.0000   0.3159
  20.000   1.9472   0.24511   0.24243  -0.2464  0.0618  1.0000  -5.7853   0.0000   0.3171
  21.000   1.9183   0.26663   0.26426  -0.2527  0.0544  1.0000  -6.2396   0.0000   0.3183
  22.000   1.8798   0.28956   0.28746  -0.2583  0.0475  1.0000  -6.6482   0.0000   0.3199


