XFLR5 v6.09.05 beta

 Calculated polar for: 15s1223

 1 1 Reynolds number fixed          Mach number fixed         

 xtrf =   1.000 (top)        1.000 (bottom)
 Mach =   0.000     Re =     0.085 e 6     Ncrit =   9.000

  alpha     CL        CD       CDp       Cm    Top Xtr Bot Xtr   Cpmin    Chinge    XCp    
 ------- -------- --------- --------- -------- ------- ------- -------- --------- ---------
   0.000   1.4997   0.04115   0.03303  -0.2783  0.5679  0.4942  -1.7515   0.0000   0.4325
   1.000   1.6661   0.04351   0.03498  -0.2893  0.5397  0.5574  -1.9184   0.0000   0.4188
   2.000   1.7723   0.04711   0.03869  -0.2892  0.5185  0.6242  -2.0422   0.0000   0.4064
   3.000   1.8910   0.05063   0.04231  -0.2912  0.4998  0.7307  -2.1967   0.0000   0.3953
   4.000   1.9496   0.05822   0.05040  -0.2851  0.4847  0.8243  -2.3054   0.0000   0.3855
   7.000   1.4302   0.16406   0.15895  -0.2447  0.4149  0.7881  -1.6303   0.0000   0.4041
   8.000   1.4026   0.19263   0.18790  -0.2549  0.4148  0.8339  -1.5422   0.0000   0.4128
   9.000   1.3711   0.21164   0.20727  -0.2633  0.3974  0.8904  -1.4609   0.0000   0.4209


