XFLR5 v6.09.05 beta

 Calculated polar for: 15s1223

 1 1 Reynolds number fixed          Mach number fixed         

 xtrf =   1.000 (top)        1.000 (bottom)
 Mach =   0.000     Re =     0.345 e 6     Ncrit =   9.000

  alpha     CL        CD       CDp       Cm    Top Xtr Bot Xtr   Cpmin    Chinge    XCp    
 ------- -------- --------- --------- -------- ------- ------- -------- --------- ---------
   0.000   1.5676   0.04294   0.03589  -0.2968  0.4164  0.3462  -1.8512   0.0000   0.4354
   1.000   1.6631   0.04482   0.03782  -0.2939  0.4047  0.3934  -1.9792   0.0000   0.4208
   2.000   1.7555   0.04634   0.03933  -0.2903  0.3921  0.4607  -2.1057   0.0000   0.4075
   3.000   1.8580   0.04677   0.03995  -0.2880  0.3803  0.5417  -2.2443   0.0000   0.3952
   4.000   1.9349   0.04868   0.04209  -0.2821  0.3726  0.6007  -2.3786   0.0000   0.3840
   5.000   2.0055   0.05057   0.04416  -0.2753  0.3627  0.6483  -2.5393   0.0000   0.3734
   6.000   2.0923   0.05152   0.04525  -0.2709  0.3468  0.6887  -2.7522   0.0000   0.3635
   7.000   2.1444   0.05530   0.04942  -0.2624  0.3397  0.7222  -3.0369   0.0000   0.3541
   8.000   2.1911   0.05980   0.05421  -0.2537  0.3254  0.7547  -3.3230   0.0000   0.3451
   9.000   2.2408   0.06435   0.05900  -0.2461  0.3088  0.7852  -3.6223   0.0000   0.3367
  10.000   2.2816   0.06943   0.06443  -0.2379  0.2941  0.8167  -3.9300   0.0000   0.3285
  11.000   2.3199   0.07442   0.06978  -0.2300  0.2750  0.8555  -4.2606   0.0000   0.3208
  20.000   1.9555   0.24519   0.24240  -0.2476  0.0546  1.0000  -5.8952   0.0000   0.3171
  21.000   1.9227   0.26767   0.26514  -0.2542  0.0474  1.0000  -6.3202   0.0000   0.3187
  22.000   1.8842   0.29071   0.28852  -0.2599  0.0415  1.0000  -6.7320   0.0000   0.3204


