XFLR5 v6.09.05 beta

 Calculated polar for: 15s1223

 1 1 Reynolds number fixed          Mach number fixed         

 xtrf =   1.000 (top)        1.000 (bottom)
 Mach =   0.000     Re =     0.215 e 6     Ncrit =   9.000

  alpha     CL        CD       CDp       Cm    Top Xtr Bot Xtr   Cpmin    Chinge    XCp    
 ------- -------- --------- --------- -------- ------- ------- -------- --------- ---------
   0.000   1.5730   0.04113   0.03352  -0.2959  0.4523  0.3865  -1.8448   0.0000   0.4344
   1.000   1.6750   0.04286   0.03527  -0.2941  0.4372  0.4372  -1.9744   0.0000   0.4199
   2.000   1.7913   0.04347   0.03575  -0.2941  0.4200  0.5150  -2.1180   0.0000   0.4067
   3.000   1.8765   0.04510   0.03777  -0.2892  0.4111  0.5820  -2.2444   0.0000   0.3947
   4.000   1.9525   0.04696   0.03985  -0.2829  0.4000  0.6417  -2.3792   0.0000   0.3835
   5.000   2.0396   0.04857   0.04162  -0.2786  0.3877  0.6989  -2.5623   0.0000   0.3731
   6.000   2.1194   0.05162   0.04505  -0.2741  0.3756  0.7516  -2.7792   0.0000   0.3637
   7.000   2.1776   0.05538   0.04914  -0.2666  0.3620  0.7998  -3.0756   0.0000   0.3545
   8.000   2.2513   0.05827   0.05227  -0.2616  0.3454  0.8531  -3.4096   0.0000   0.3460
  19.000   1.9651   0.22327   0.22037  -0.2375  0.0806  1.0000  -5.2135   0.0000   0.3153
  20.000   1.9376   0.24459   0.24212  -0.2444  0.0713  1.0000  -5.6453   0.0000   0.3167
  21.000   1.9143   0.26427   0.26201  -0.2498  0.0627  1.0000  -6.1375   0.0000   0.3171
  22.000   1.8499   0.29416   0.29249  -0.2574  0.0563  1.0000  -6.3238   0.0000   0.3218


