XFLR5 v6.09.05 beta

 Calculated polar for: 15s1223

 1 1 Reynolds number fixed          Mach number fixed         

 xtrf =   1.000 (top)        1.000 (bottom)
 Mach =   0.000     Re =     0.160 e 6     Ncrit =   9.000

  alpha     CL        CD       CDp       Cm    Top Xtr Bot Xtr   Cpmin    Chinge    XCp    
 ------- -------- --------- --------- -------- ------- ------- -------- --------- ---------
   0.000   1.5730   0.04057   0.03270  -0.2949  0.4810  0.4166  -1.8352   0.0000   0.4339
   1.000   1.6942   0.04178   0.03371  -0.2962  0.4618  0.4726  -1.9792   0.0000   0.4194
   2.000   1.7967   0.04341   0.03549  -0.2941  0.4465  0.5439  -2.1054   0.0000   0.4064
   3.000   1.8853   0.04532   0.03766  -0.2899  0.4334  0.6121  -2.2369   0.0000   0.3945
   4.000   2.0079   0.04711   0.03939  -0.2915  0.4182  0.6897  -2.4212   0.0000   0.3841
   5.000   2.0651   0.05071   0.04365  -0.2830  0.4086  0.7515  -2.5719   0.0000   0.3738
   6.000   2.1344   0.05423   0.04747  -0.2769  0.3941  0.8148  -2.7868   0.0000   0.3643
  18.000   2.0062   0.19566   0.19302  -0.2235  0.1183  1.0000  -4.8859   0.0000   0.3098
  19.000   1.9836   0.21424   0.21168  -0.2293  0.1001  1.0000  -5.2540   0.0000   0.3102


