XFLR5 v6.09.05 beta

 Calculated polar for: 20s1223

 1 1 Reynolds number fixed          Mach number fixed         

 xtrf =   1.000 (top)        1.000 (bottom)
 Mach =   0.000     Re =     0.205 e 6     Ncrit =   9.000

  alpha     CL        CD       CDp       Cm    Top Xtr Bot Xtr   Cpmin    Chinge    XCp    
 ------- -------- --------- --------- -------- ------- ------- -------- --------- ---------
   0.000   1.6249   0.05511   0.04787  -0.2925  0.4520  0.3983  -1.8989   0.0000   0.4251
   1.000   1.7221   0.05698   0.04976  -0.2899  0.4362  0.4464  -2.0264   0.0000   0.4115
   2.000   1.8501   0.05584   0.04851  -0.2914  0.4195  0.5146  -2.1842   0.0000   0.3989
   3.000   1.9195   0.05792   0.05095  -0.2844  0.4117  0.5656  -2.3028   0.0000   0.3875
   4.000   1.9837   0.05980   0.05306  -0.2766  0.3998  0.6135  -2.4394   0.0000   0.3767
   5.000   2.0723   0.06041   0.05385  -0.2725  0.3866  0.6627  -2.6337   0.0000   0.3667
   6.000   2.1202   0.06409   0.05800  -0.2635  0.3750  0.7054  -2.8522   0.0000   0.3572
   7.000   2.1701   0.06795   0.06222  -0.2554  0.3611  0.7455  -3.1369   0.0000   0.3482
   8.000   2.2364   0.07088   0.06546  -0.2500  0.3443  0.7857  -3.4617   0.0000   0.3398
   9.000   2.2485   0.07642   0.07142  -0.2384  0.3264  0.8169  -3.6938   0.0000   0.3313
  10.000   2.2885   0.08011   0.07538  -0.2309  0.3083  0.8456  -4.0125   0.0000   0.3235
  14.000   2.2182   0.12775   0.12451  -0.2064  0.1976  1.0000  -4.7611   0.0000   0.3026
  15.000   2.1372   0.15285   0.14983  -0.2119  0.1627  1.0000  -4.7185   0.0000   0.3049
  16.000   2.0690   0.17837   0.17549  -0.2200  0.1322  1.0000  -4.6926   0.0000   0.3082
  17.000   2.0177   0.20256   0.19975  -0.2282  0.1072  1.0000  -4.7488   0.0000   0.3111
  18.000   1.9825   0.22443   0.22187  -0.2351  0.0898  1.0000  -5.0403   0.0000   0.3128
  19.000   1.9530   0.24539   0.24300  -0.2412  0.0766  1.0000  -5.4690   0.0000   0.3137
  20.000   1.9166   0.26828   0.26618  -0.2475  0.0670  1.0000  -5.8660   0.0000   0.3152
  21.000   1.8624   0.29383   0.29220  -0.2526  0.0601  1.0000  -6.1631   0.0000   0.3175


