XFLR5 v6.09.05 beta

 Calculated polar for: 20s1223

 1 1 Reynolds number fixed          Mach number fixed         

 xtrf =   1.000 (top)        1.000 (bottom)
 Mach =   0.000     Re =     0.135 e 6     Ncrit =   9.000

  alpha     CL        CD       CDp       Cm    Top Xtr Bot Xtr   Cpmin    Chinge    XCp    
 ------- -------- --------- --------- -------- ------- ------- -------- --------- ---------
   0.000   1.6190   0.05055   0.04287  -0.2884  0.4940  0.4370  -1.8805   0.0000   0.4237
   1.000   1.7206   0.05307   0.04547  -0.2870  0.4760  0.4833  -2.0041   0.0000   0.4104
   2.000   1.8563   0.05344   0.04567  -0.2903  0.4572  0.5494  -2.1695   0.0000   0.3982
   3.000   1.9206   0.05690   0.04956  -0.2830  0.4465  0.6082  -2.2804   0.0000   0.3871
   4.000   1.9917   0.05981   0.05271  -0.2766  0.4320  0.6665  -2.4249   0.0000   0.3766
   5.000   2.0917   0.06335   0.05661  -0.2756  0.4174  0.7382  -2.6296   0.0000   0.3674
   6.000   2.0986   0.07077   0.06475  -0.2618  0.4033  0.7848  -2.7817   0.0000   0.3579
   7.000   2.1956   0.07316   0.06716  -0.2604  0.3859  0.8425  -3.1489   0.0000   0.3495
   8.000   2.1306   0.08511   0.08021  -0.2409  0.3700  0.8635  -3.2123   0.0000   0.3412
  10.000   1.8958   0.13414   0.13056  -0.2222  0.3200  0.8950  -3.0371   0.0000   0.3389
  15.000   2.0975   0.15577   0.15310  -0.2095  0.1938  1.0000  -4.5419   0.0000   0.3058
  17.000   1.9579   0.21248   0.21044  -0.2284  0.1369  1.0000  -4.4102   0.0000   0.3149
  18.000   1.8918   0.24366   0.24194  -0.2379  0.1186  1.0000  -4.3780   0.0000   0.3201


