XFLR5 v6.09.05 beta

 Calculated polar for: 20s1223

 1 1 Reynolds number fixed          Mach number fixed         

 xtrf =   1.000 (top)        1.000 (bottom)
 Mach =   0.000     Re =     0.190 e 6     Ncrit =   9.000

  alpha     CL        CD       CDp       Cm    Top Xtr Bot Xtr   Cpmin    Chinge    XCp    
 ------- -------- --------- --------- -------- ------- ------- -------- --------- ---------
   0.000   1.6359   0.05363   0.04617  -0.2936  0.4566  0.4073  -1.9065   0.0000   0.4247
   1.000   1.7281   0.05597   0.04865  -0.2904  0.4425  0.4551  -2.0278   0.0000   0.4113
   2.000   1.8273   0.05682   0.04957  -0.2878  0.4283  0.5158  -2.1607   0.0000   0.3988
   3.000   1.9305   0.05670   0.04957  -0.2855  0.4164  0.5711  -2.3106   0.0000   0.3874
   4.000   1.9885   0.05918   0.05240  -0.2769  0.4053  0.6190  -2.4406   0.0000   0.3766
   5.000   2.0609   0.06105   0.05458  -0.2707  0.3928  0.6693  -2.6159   0.0000   0.3666
   6.000   2.1399   0.06370   0.05750  -0.2663  0.3789  0.7201  -2.8822   0.0000   0.3574
   7.000   2.1704   0.06880   0.06310  -0.2556  0.3653  0.7591  -3.1314   0.0000   0.3483
   8.000   2.2512   0.07093   0.06540  -0.2521  0.3467  0.8025  -3.4841   0.0000   0.3401
   9.000   2.2430   0.07731   0.07239  -0.2381  0.3306  0.8303  -3.6750   0.0000   0.3315
  10.000   2.2915   0.07998   0.07519  -0.2312  0.3110  0.8672  -4.0122   0.0000   0.3236
  14.000   2.2125   0.12795   0.12496  -0.2059  0.2066  1.0000  -4.7344   0.0000   0.3026
  15.000   2.1381   0.15177   0.14874  -0.2107  0.1695  1.0000  -4.7141   0.0000   0.3043
  16.000   2.0719   0.17682   0.17399  -0.2185  0.1390  1.0000  -4.6944   0.0000   0.3074
  17.000   2.0255   0.19974   0.19710  -0.2260  0.1144  1.0000  -4.7806   0.0000   0.3097
  18.000   1.9880   0.22197   0.21946  -0.2332  0.0951  1.0000  -5.0575   0.0000   0.3115
  19.000   1.9561   0.24338   0.24095  -0.2396  0.0794  1.0000  -5.4739   0.0000   0.3127
  20.000   1.9071   0.26997   0.26807  -0.2474  0.0702  1.0000  -5.7639   0.0000   0.3159
  21.000   1.8625   0.29256   0.29092  -0.2514  0.0620  1.0000  -6.1426   0.0000   0.3169


