XFLR5 v6.09.05 beta

 Calculated polar for: 20s1223

 1 1 Reynolds number fixed          Mach number fixed         

 xtrf =   1.000 (top)        1.000 (bottom)
 Mach =   0.000     Re =     0.040 e 6     Ncrit =   9.000

  alpha     CL        CD       CDp       Cm    Top Xtr Bot Xtr   Cpmin    Chinge    XCp    
 ------- -------- --------- --------- -------- ------- ------- -------- --------- ---------
   0.000   0.0658   0.13628   0.13206  -0.0739  0.8221  0.2859  -0.6282   0.0000   1.3922
   1.000   0.0627   0.12814   0.12410  -0.0647  0.8192  0.3111  -0.5841   0.0000   1.2925
   2.000   0.4366   0.13324   0.12872  -0.1464  0.7997  0.2577  -0.6083   0.0000   0.5804
   5.000   1.0027   0.18848   0.18253  -0.2315  0.7241  0.7249  -0.9556   0.0000   0.4676
   6.000   1.0933   0.20022   0.19418  -0.2436  0.6859  0.7900  -1.0286   0.0000   0.4571
   7.000   1.1516   0.20677   0.20077  -0.2518  0.6396  0.8608  -1.0834   0.0000   0.4502


