XFLR5 v6.09.05 beta

 Calculated polar for: 20s1223

 1 1 Reynolds number fixed          Mach number fixed         

 xtrf =   1.000 (top)        1.000 (bottom)
 Mach =   0.000     Re =     0.315 e 6     Ncrit =   9.000

  alpha     CL        CD       CDp       Cm    Top Xtr Bot Xtr   Cpmin    Chinge    XCp    
 ------- -------- --------- --------- -------- ------- ------- -------- --------- ---------
   0.000   1.6076   0.06026   0.05350  -0.2921  0.4177  0.3600  -1.8939   0.0000   0.4265
   1.000   1.6981   0.06249   0.05582  -0.2885  0.4061  0.4058  -2.0185   0.0000   0.4127
   2.000   1.7885   0.06384   0.05726  -0.2848  0.3943  0.4679  -2.1442   0.0000   0.4000
   3.000   1.9027   0.06188   0.05533  -0.2839  0.3817  0.5331  -2.3025   0.0000   0.3881
   4.000   1.9651   0.06431   0.05805  -0.2761  0.3743  0.5777  -2.4326   0.0000   0.3773
   5.000   2.0223   0.06675   0.06082  -0.2678  0.3638  0.6170  -2.5899   0.0000   0.3670
   6.000   2.1120   0.06571   0.05978  -0.2637  0.3474  0.6551  -2.8602   0.0000   0.3574
   7.000   2.1443   0.07053   0.06505  -0.2530  0.3396  0.6818  -3.1136   0.0000   0.3481
   8.000   2.1888   0.07444   0.06921  -0.2446  0.3240  0.7124  -3.3982   0.0000   0.3393
   9.000   2.2421   0.07774   0.07279  -0.2378  0.3077  0.7417  -3.7063   0.0000   0.3311
  10.000   2.2815   0.08285   0.07824  -0.2304  0.2913  0.7675  -4.0287   0.0000   0.3232
  11.000   2.3274   0.08695   0.08268  -0.2244  0.2676  0.7913  -4.3801   0.0000   0.3159
  12.000   2.3219   0.09682   0.09244  -0.2162  0.2183  0.8103  -4.6161   0.0000   0.3094
  13.000   2.2576   0.11468   0.11037  -0.2104  0.1707  0.8206  -4.6850   0.0000   0.3060
  15.000   2.1185   0.15969   0.15600  -0.2177  0.1163  0.8417  -4.6912   0.0000   0.3082
  16.000   2.0612   0.18387   0.18045  -0.2254  0.0968  0.8564  -4.6913   0.0000   0.3110
  18.000   1.9918   0.22673   0.22383  -0.2388  0.0699  1.0000  -5.2010   0.0000   0.3139
  19.000   1.9628   0.24765   0.24499  -0.2448  0.0606  1.0000  -5.6437   0.0000   0.3148
  20.000   1.9348   0.26822   0.26580  -0.2502  0.0525  1.0000  -6.1206   0.0000   0.3153
  21.000   1.8913   0.29162   0.28952  -0.2553  0.0458  1.0000  -6.5089   0.0000   0.3167


