XFLR5 v6.09.05 beta

 Calculated polar for: 20s1223

 1 1 Reynolds number fixed          Mach number fixed         

 xtrf =   1.000 (top)        1.000 (bottom)
 Mach =   0.000     Re =     0.120 e 6     Ncrit =   9.000

  alpha     CL        CD       CDp       Cm    Top Xtr Bot Xtr   Cpmin    Chinge    XCp    
 ------- -------- --------- --------- -------- ------- ------- -------- --------- ---------
   0.000   1.5772   0.05068   0.04316  -0.2806  0.5102  0.4455  -1.8399   0.0000   0.4235
   1.000   1.7256   0.05203   0.04422  -0.2869  0.4897  0.4997  -2.0020   0.0000   0.4101
   2.000   1.8223   0.05488   0.04726  -0.2849  0.4715  0.5585  -2.1295   0.0000   0.3982
   3.000   1.9424   0.05637   0.04871  -0.2858  0.4565  0.6278  -2.2953   0.0000   0.3871
   4.000   1.9806   0.06174   0.05467  -0.2752  0.4434  0.6866  -2.4018   0.0000   0.3768
   5.000   2.0570   0.06607   0.05944  -0.2708  0.4284  0.7574  -2.5774   0.0000   0.3673
   6.000   2.0938   0.07417   0.06808  -0.2622  0.4131  0.8124  -2.7611   0.0000   0.3585
   7.000   2.0556   0.08503   0.07967  -0.2455  0.3953  0.8433  -2.8728   0.0000   0.3501
   8.000   2.0354   0.09640   0.09158  -0.2343  0.3779  0.8800  -3.0075   0.0000   0.3431
   9.000   1.8831   0.12527   0.12120  -0.2241  0.3507  0.8836  -2.8438   0.0000   0.3438
  15.000   1.9226   0.19320   0.19095  -0.2259  0.1945  1.0000  -3.9148   0.0000   0.3230
  16.000   1.9186   0.20775   0.20566  -0.2287  0.1666  1.0000  -4.0468   0.0000   0.3212


