XFLR5 v6.09.05 beta

 Calculated polar for: 20s1223

 1 1 Reynolds number fixed          Mach number fixed         

 xtrf =   1.000 (top)        1.000 (bottom)
 Mach =   0.000     Re =     0.175 e 6     Ncrit =   9.000

  alpha     CL        CD       CDp       Cm    Top Xtr Bot Xtr   Cpmin    Chinge    XCp    
 ------- -------- --------- --------- -------- ------- ------- -------- --------- ---------
   0.000   1.6186   0.05404   0.04662  -0.2907  0.4665  0.4122  -1.8892   0.0000   0.4248
   1.000   1.7403   0.05474   0.04724  -0.2919  0.4495  0.4654  -2.0349   0.0000   0.4111
   2.000   1.8273   0.05619   0.04894  -0.2874  0.4354  0.5207  -2.1558   0.0000   0.3987
   3.000   1.9336   0.05598   0.04868  -0.2855  0.4218  0.5771  -2.3109   0.0000   0.3872
   4.000   1.9963   0.05864   0.05173  -0.2777  0.4114  0.6281  -2.4452   0.0000   0.3766
   5.000   2.0581   0.06161   0.05519  -0.2702  0.3985  0.6806  -2.6065   0.0000   0.3666
   6.000   2.1585   0.06374   0.05738  -0.2690  0.3823  0.7402  -2.9087   0.0000   0.3578
   7.000   2.1731   0.06981   0.06411  -0.2563  0.3702  0.7776  -3.1297   0.0000   0.3486
   8.000   2.2358   0.07227   0.06679  -0.2503  0.3532  0.8185  -3.4498   0.0000   0.3401
   9.000   2.2367   0.07868   0.07382  -0.2378  0.3355  0.8496  -3.6530   0.0000   0.3317
  14.000   2.1993   0.12919   0.12630  -0.2056  0.2135  1.0000  -4.6866   0.0000   0.3031
  15.000   2.1253   0.15353   0.15080  -0.2109  0.1778  1.0000  -4.6613   0.0000   0.3050
  16.000   2.0836   0.17305   0.17009  -0.2158  0.1434  1.0000  -4.7300   0.0000   0.3056
  17.000   2.0371   0.19572   0.19300  -0.2230  0.1194  1.0000  -4.8429   0.0000   0.3076
  18.000   2.0018   0.21702   0.21441  -0.2297  0.0992  1.0000  -5.1390   0.0000   0.3090
  19.000   1.9497   0.24429   0.24215  -0.2391  0.0859  1.0000  -5.3897   0.0000   0.3129
  20.000   1.8955   0.27199   0.27024  -0.2471  0.0741  1.0000  -5.6397   0.0000   0.3165
  21.000   1.8308   0.29860   0.29716  -0.2516  0.0651  1.0000  -5.8844   0.0000   0.3194


