XFLR5 v6.09.05 beta

 Calculated polar for: 20s1223

 1 1 Reynolds number fixed          Mach number fixed         

 xtrf =   1.000 (top)        1.000 (bottom)
 Mach =   0.000     Re =     0.260 e 6     Ncrit =   9.000

  alpha     CL        CD       CDp       Cm    Top Xtr Bot Xtr   Cpmin    Chinge    XCp    
 ------- -------- --------- --------- -------- ------- ------- -------- --------- ---------
   0.000   1.6087   0.05881   0.05185  -0.2915  0.4334  0.3739  -1.8914   0.0000   0.4261
   1.000   1.7262   0.05864   0.05157  -0.2916  0.4168  0.4270  -2.0384   0.0000   0.4119
   2.000   1.8109   0.06022   0.05345  -0.2869  0.4065  0.4876  -2.1567   0.0000   0.3994
   3.000   1.8930   0.06124   0.05458  -0.2817  0.3957  0.5440  -2.2877   0.0000   0.3878
   4.000   1.9938   0.06014   0.05349  -0.2789  0.3821  0.5950  -2.4594   0.0000   0.3770
   5.000   2.0441   0.06297   0.05685  -0.2695  0.3740  0.6311  -2.6079   0.0000   0.3667
   6.000   2.0993   0.06580   0.05989  -0.2613  0.3613  0.6690  -2.8310   0.0000   0.3571
   7.000   2.1800   0.06670   0.06090  -0.2569  0.3463  0.7087  -3.1682   0.0000   0.3482
   8.000   2.2006   0.07258   0.06737  -0.2455  0.3336  0.7408  -3.4095   0.0000   0.3393
   9.000   2.2589   0.07530   0.07012  -0.2394  0.3127  0.7735  -3.7305   0.0000   0.3311
  10.000   2.2841   0.08124   0.07663  -0.2305  0.2988  0.7975  -4.0218   0.0000   0.3233
  11.000   2.3203   0.08583   0.08146  -0.2233  0.2788  0.8256  -4.3499   0.0000   0.3158
  12.000   2.3337   0.09361   0.08952  -0.2158  0.2475  0.8472  -4.6297   0.0000   0.3090
  14.000   2.2032   0.13233   0.12865  -0.2096  0.1645  1.0000  -4.7386   0.0000   0.3044
  15.000   2.1240   0.15752   0.15411  -0.2158  0.1343  1.0000  -4.6984   0.0000   0.3071
  16.000   2.0593   0.18280   0.17958  -0.2240  0.1092  1.0000  -4.6769   0.0000   0.3105
  17.000   2.0168   0.20536   0.20238  -0.2312  0.0911  1.0000  -4.7518   0.0000   0.3126
  18.000   1.9841   0.22670   0.22390  -0.2378  0.0777  1.0000  -5.1066   0.0000   0.3139
  19.000   1.9578   0.24694   0.24435  -0.2435  0.0672  1.0000  -5.5658   0.0000   0.3145
  20.000   1.9305   0.26734   0.26509  -0.2487  0.0592  1.0000  -6.0401   0.0000   0.3149
  21.000   1.8809   0.29229   0.29035  -0.2544  0.0518  1.0000  -6.3796   0.0000   0.3171


