XFLR5 v6.09.05 beta

 Calculated polar for: 20s1223

 1 1 Reynolds number fixed          Mach number fixed         

 xtrf =   1.000 (top)        1.000 (bottom)
 Mach =   0.000     Re =     0.230 e 6     Ncrit =   9.000

  alpha     CL        CD       CDp       Cm    Top Xtr Bot Xtr   Cpmin    Chinge    XCp    
 ------- -------- --------- --------- -------- ------- ------- -------- --------- ---------
   0.000   1.6180   0.05693   0.04989  -0.2923  0.4431  0.3870  -1.8960   0.0000   0.4256
   1.000   1.7234   0.05787   0.05066  -0.2907  0.4258  0.4365  -2.0328   0.0000   0.4117
   2.000   1.8240   0.05821   0.05121  -0.2881  0.4142  0.5000  -2.1637   0.0000   0.3991
   3.000   1.9034   0.05964   0.05286  -0.2826  0.4038  0.5552  -2.2916   0.0000   0.3876
   4.000   1.9765   0.06066   0.05397  -0.2760  0.3920  0.6031  -2.4370   0.0000   0.3767
   5.000   2.0649   0.06102   0.05466  -0.2719  0.3799  0.6486  -2.6284   0.0000   0.3667
   6.000   2.1077   0.06485   0.05891  -0.2620  0.3682  0.6852  -2.8382   0.0000   0.3571
   7.000   2.1721   0.06736   0.06156  -0.2557  0.3547  0.7248  -3.1492   0.0000   0.3481
   8.000   2.2151   0.07165   0.06636  -0.2473  0.3395  0.7612  -3.4291   0.0000   0.3395
   9.000   2.2503   0.07589   0.07078  -0.2384  0.3205  0.7931  -3.7074   0.0000   0.3311
  10.000   2.2873   0.08038   0.07572  -0.2307  0.3038  0.8212  -4.0196   0.0000   0.3234
  11.000   2.3144   0.08568   0.08128  -0.2226  0.2837  0.8510  -4.3270   0.0000   0.3158
  14.000   2.2158   0.12931   0.12592  -0.2078  0.1826  1.0000  -4.7651   0.0000   0.3032
  15.000   2.1300   0.15531   0.15207  -0.2140  0.1490  1.0000  -4.7079   0.0000   0.3060
  16.000   2.0624   0.18082   0.17765  -0.2221  0.1200  1.0000  -4.6808   0.0000   0.3095
  17.000   2.0119   0.20517   0.20217  -0.2304  0.0977  1.0000  -4.7250   0.0000   0.3125
  18.000   1.9781   0.22679   0.22398  -0.2371  0.0820  1.0000  -5.0376   0.0000   0.3139
  19.000   1.9572   0.24574   0.24333  -0.2422  0.0722  1.0000  -5.5313   0.0000   0.3139
  20.000   1.9270   0.26668   0.26439  -0.2476  0.0624  1.0000  -5.9819   0.0000   0.3146
  21.000   1.8729   0.29287   0.29115  -0.2535  0.0563  1.0000  -6.2792   0.0000   0.3172


