XFLR5 v6.09.05 beta

 Calculated polar for: 20s1223

 1 1 Reynolds number fixed          Mach number fixed         

 xtrf =   1.000 (top)        1.000 (bottom)
 Mach =   0.000     Re =     0.125 e 6     Ncrit =   9.000

  alpha     CL        CD       CDp       Cm    Top Xtr Bot Xtr   Cpmin    Chinge    XCp    
 ------- -------- --------- --------- -------- ------- ------- -------- --------- ---------
   0.000   1.5879   0.05074   0.04317  -0.2827  0.5046  0.4415  -1.8513   0.0000   0.4236
   1.000   1.7195   0.05246   0.04476  -0.2862  0.4851  0.4920  -1.9987   0.0000   0.4102
   2.000   1.8241   0.05445   0.04682  -0.2850  0.4671  0.5521  -2.1351   0.0000   0.3981
   3.000   1.9321   0.05657   0.04904  -0.2844  0.4535  0.6190  -2.2874   0.0000   0.3871
   4.000   1.9817   0.06115   0.05410  -0.2753  0.4393  0.6777  -2.4065   0.0000   0.3767
   5.000   2.0815   0.06413   0.05735  -0.2740  0.4245  0.7538  -2.6123   0.0000   0.3673
   6.000   2.0938   0.07308   0.06703  -0.2619  0.4097  0.8018  -2.7654   0.0000   0.3583
   7.000   2.1131   0.07971   0.07412  -0.2510  0.3923  0.8460  -2.9868   0.0000   0.3495
   8.000   2.0699   0.09213   0.08725  -0.2364  0.3754  0.8740  -3.0821   0.0000   0.3423
  10.000   1.7889   0.15644   0.15283  -0.2286  0.3127  0.8846  -2.7466   0.0000   0.3495
  15.000   1.9713   0.18210   0.17983  -0.2213  0.1961  1.0000  -4.0977   0.0000   0.3178
  16.000   2.0005   0.18802   0.18571  -0.2199  0.1663  1.0000  -4.3713   0.0000   0.3120


