XFLR5 v6.09.05 beta

 Calculated polar for: 20s1223

 1 1 Reynolds number fixed          Mach number fixed         

 xtrf =   1.000 (top)        1.000 (bottom)
 Mach =   0.000     Re =     0.295 e 6     Ncrit =   9.000

  alpha     CL        CD       CDp       Cm    Top Xtr Bot Xtr   Cpmin    Chinge    XCp    
 ------- -------- --------- --------- -------- ------- ------- -------- --------- ---------
   0.000   1.6137   0.05908   0.05215  -0.2926  0.4207  0.3651  -1.8983   0.0000   0.4262
   1.000   1.7047   0.06134   0.05454  -0.2892  0.4101  0.4113  -2.0226   0.0000   0.4125
   2.000   1.7954   0.06273   0.05612  -0.2854  0.3986  0.4753  -2.1479   0.0000   0.3998
   3.000   1.9026   0.06136   0.05470  -0.2835  0.3852  0.5373  -2.3011   0.0000   0.3880
   4.000   1.9741   0.06279   0.05641  -0.2769  0.3774  0.5827  -2.4411   0.0000   0.3771
   5.000   2.0324   0.06508   0.05909  -0.2687  0.3672  0.6213  -2.5993   0.0000   0.3669
   6.000   2.0884   0.06730   0.06139  -0.2604  0.3540  0.6575  -2.8181   0.0000   0.3571
   7.000   2.1519   0.06939   0.06382  -0.2537  0.3423  0.6903  -3.1242   0.0000   0.3480
   8.000   2.1934   0.07373   0.06853  -0.2449  0.3273  0.7207  -3.4036   0.0000   0.3393
   9.000   2.2442   0.07674   0.07171  -0.2377  0.3098  0.7504  -3.7071   0.0000   0.3310
  10.000   2.2811   0.08238   0.07779  -0.2303  0.2940  0.7779  -4.0239   0.0000   0.3232
  11.000   2.3256   0.08657   0.08230  -0.2241  0.2731  0.8038  -4.3711   0.0000   0.3159
  12.000   2.3287   0.09549   0.09123  -0.2162  0.2289  0.8220  -4.6283   0.0000   0.3092
  14.000   2.1874   0.13556   0.13163  -0.2113  0.1468  0.8462  -4.6999   0.0000   0.3058
  15.000   2.1122   0.16059   0.15694  -0.2179  0.1205  0.8606  -4.6680   0.0000   0.3086
  17.000   2.0180   0.20628   0.20315  -0.2323  0.0843  1.0000  -4.7621   0.0000   0.3130
  18.000   1.9905   0.22643   0.22359  -0.2383  0.0728  1.0000  -5.1790   0.0000   0.3138
  19.000   1.9594   0.24782   0.24514  -0.2445  0.0623  1.0000  -5.6039   0.0000   0.3149
  20.000   1.9355   0.26737   0.26503  -0.2495  0.0549  1.0000  -6.1115   0.0000   0.3149
  21.000   1.8876   0.29183   0.28971  -0.2550  0.0472  1.0000  -6.4647   0.0000   0.3168


