XFLR5 v6.09.05 beta

 Calculated polar for: 25s1223

 1 1 Reynolds number fixed          Mach number fixed         

 xtrf =   1.000 (top)        1.000 (bottom)
 Mach =   0.000     Re =     0.190 e 6     Ncrit =   9.000

  alpha     CL        CD       CDp       Cm    Top Xtr Bot Xtr   Cpmin    Chinge    XCp    
 ------- -------- --------- --------- -------- ------- ------- -------- --------- ---------
   0.000   1.6187   0.07044   0.06370  -0.2790  0.4550  0.4013  -1.9014   0.0000   0.4161
   1.000   1.7137   0.07225   0.06555  -0.2764  0.4391  0.4416  -2.0266   0.0000   0.4030
   2.000   1.8230   0.07022   0.06347  -0.2750  0.4250  0.4919  -2.1743   0.0000   0.3907
   3.000   1.9059   0.07041   0.06392  -0.2702  0.4153  0.5365  -2.3088   0.0000   0.3796
   4.000   1.9617   0.07236   0.06617  -0.2619  0.4032  0.5801  -2.4436   0.0000   0.3692
   5.000   2.0438   0.07246   0.06646  -0.2574  0.3900  0.6287  -2.6382   0.0000   0.3595
   6.000   2.0988   0.07524   0.06967  -0.2504  0.3767  0.6712  -2.8866   0.0000   0.3505
   7.000   2.1417   0.07822   0.07301  -0.2419  0.3624  0.7115  -3.1563   0.0000   0.3417
   8.000   2.2102   0.08039   0.07548  -0.2372  0.3449  0.7552  -3.4868   0.0000   0.3336
   9.000   2.2343   0.08606   0.08154  -0.2282  0.3251  0.7852  -3.7446   0.0000   0.3254
  10.000   2.2723   0.09108   0.08697  -0.2218  0.3061  0.8171  -4.0703   0.0000   0.3180
  11.000   2.3107   0.09554   0.09164  -0.2155  0.2843  0.8377  -4.4061   0.0000   0.3107
  12.000   2.2861   0.10838   0.10512  -0.2078  0.2599  0.8599  -4.5846   0.0000   0.3049
  13.000   2.2449   0.12489   0.12195  -0.2040  0.2281  0.8751  -4.7066   0.0000   0.3012
  14.000   2.1740   0.14749   0.14474  -0.2063  0.1904  0.8943  -4.7162   0.0000   0.3012
  15.000   2.0986   0.17338   0.17083  -0.2134  0.1553  1.0000  -4.6736   0.0000   0.3039
  16.000   2.0411   0.19789   0.19532  -0.2210  0.1255  1.0000  -4.6915   0.0000   0.3064
  17.000   2.0000   0.22043   0.21803  -0.2278  0.1036  1.0000  -4.9017   0.0000   0.3080
  18.000   1.9582   0.24423   0.24209  -0.2350  0.0866  1.0000  -5.2112   0.0000   0.3100
  19.000   1.9211   0.26678   0.26490  -0.2408  0.0741  1.0000  -5.6044   0.0000   0.3111
  20.000   1.8749   0.29006   0.28844  -0.2454  0.0649  1.0000  -5.9735   0.0000   0.3123


