XFLR5 v6.09.05 beta

 Calculated polar for: 25s1223

 1 1 Reynolds number fixed          Mach number fixed         

 xtrf =   1.000 (top)        1.000 (bottom)
 Mach =   0.000     Re =     0.230 e 6     Ncrit =   9.000

  alpha     CL        CD       CDp       Cm    Top Xtr Bot Xtr   Cpmin    Chinge    XCp    
 ------- -------- --------- --------- -------- ------- ------- -------- --------- ---------
   0.000   1.5814   0.07929   0.07293  -0.2759  0.4388  0.3820  -1.8709   0.0000   0.4178
   1.000   1.7334   0.07438   0.06766  -0.2804  0.4208  0.4330  -2.0526   0.0000   0.4033
   2.000   1.8085   0.07569   0.06932  -0.2746  0.4122  0.4807  -2.1661   0.0000   0.3913
   3.000   1.8871   0.07572   0.06949  -0.2692  0.4013  0.5262  -2.2987   0.0000   0.3801
   4.000   1.9720   0.07428   0.06804  -0.2644  0.3889  0.5710  -2.4666   0.0000   0.3695
   5.000   2.0364   0.07470   0.06894  -0.2574  0.3784  0.6098  -2.6364   0.0000   0.3597
   6.000   2.0862   0.07679   0.07135  -0.2491  0.3651  0.6417  -2.8787   0.0000   0.3503
   7.000   2.1733   0.07635   0.07102  -0.2459  0.3482  0.6832  -3.2308   0.0000   0.3418
   8.000   2.1966   0.08126   0.07645  -0.2356  0.3353  0.7157  -3.4763   0.0000   0.3332
   9.000   2.2537   0.08383   0.07903  -0.2297  0.3136  0.7491  -3.8047   0.0000   0.3252
  10.000   2.2858   0.08992   0.08580  -0.2225  0.2979  0.7814  -4.1192   0.0000   0.3177
  11.000   2.3252   0.09481   0.09092  -0.2166  0.2765  0.8034  -4.4582   0.0000   0.3105
  12.000   2.3097   0.10678   0.10322  -0.2089  0.2465  0.8242  -4.6663   0.0000   0.3044
  13.000   2.2522   0.12526   0.12198  -0.2051  0.2054  0.8336  -4.7482   0.0000   0.3012
  14.000   2.1660   0.14988   0.14668  -0.2083  0.1669  0.8388  -4.7135   0.0000   0.3023
  15.000   2.0910   0.17593   0.17299  -0.2157  0.1356  0.8463  -4.6725   0.0000   0.3053
  16.000   2.0329   0.20115   0.19833  -0.2239  0.1086  0.8576  -4.6823   0.0000   0.3082
  18.000   1.9620   0.24530   0.24289  -0.2369  0.0765  1.0000  -5.2937   0.0000   0.3106
  19.000   1.9273   0.26735   0.26521  -0.2425  0.0665  1.0000  -5.7096   0.0000   0.3115
  20.000   1.8907   0.28845   0.28667  -0.2465  0.0588  1.0000  -6.1488   0.0000   0.3117


