XFLR5 v6.09.05 beta

 Calculated polar for: 25s1223

 1 1 Reynolds number fixed          Mach number fixed         

 xtrf =   1.000 (top)        1.000 (bottom)
 Mach =   0.000     Re =     0.140 e 6     Ncrit =   9.000

  alpha     CL        CD       CDp       Cm    Top Xtr Bot Xtr   Cpmin    Chinge    XCp    
 ------- -------- --------- --------- -------- ------- ------- -------- --------- ---------
   0.000   1.5984   0.06466   0.05770  -0.2732  0.4874  0.4260  -1.8726   0.0000   0.4151
   1.000   1.7254   0.06557   0.05840  -0.2757  0.4680  0.4711  -2.0237   0.0000   0.4020
   2.000   1.8336   0.06597   0.05896  -0.2749  0.4537  0.5206  -2.1663   0.0000   0.3902
   3.000   1.8991   0.06882   0.06213  -0.2682  0.4408  0.5686  -2.2824   0.0000   0.3795
   4.000   1.9896   0.06952   0.06285  -0.2647  0.4266  0.6257  -2.4589   0.0000   0.3692
   5.000   2.0291   0.07474   0.06882  -0.2556  0.4132  0.6767  -2.5939   0.0000   0.3599
   6.000   2.0561   0.08002   0.07459  -0.2458  0.3975  0.7213  -2.7824   0.0000   0.3509
   7.000   2.1274   0.08400   0.07880  -0.2421  0.3810  0.7755  -3.0994   0.0000   0.3427
   8.000   2.0988   0.09447   0.09013  -0.2293  0.3623  0.8051  -3.2298   0.0000   0.3353
   9.000   2.1556   0.09797   0.09384  -0.2245  0.3433  0.8386  -3.5385   0.0000   0.3275
  10.000   2.1971   0.10096   0.09709  -0.2182  0.3206  0.8745  -3.8533   0.0000   0.3196
  11.000   1.9307   0.15315   0.15033  -0.2182  0.2862  0.8552  -3.3495   0.0000   0.3289
  14.000   1.9269   0.19558   0.19367  -0.2253  0.2018  1.0000  -3.8577   0.0000   0.3223
  15.000   2.0102   0.18941   0.18746  -0.2185  0.1768  1.0000  -4.3273   0.0000   0.3107
  16.000   2.0236   0.19857   0.19641  -0.2185  0.1466  1.0000  -4.5789   0.0000   0.3063
  17.000   1.9744   0.22350   0.22172  -0.2258  0.1251  1.0000  -4.6951   0.0000   0.3086
  24.000   1.0329   0.36043   0.36019  -0.2346  0.0608  1.0000  -1.2897   0.0000   0.3990
  25.000   1.0270   0.36720   0.36706  -0.2358  0.0483  1.0000  -1.3995   0.0000   0.3969


