XFLR5 v6.09.05 beta

 Calculated polar for: 25s1223

 1 1 Reynolds number fixed          Mach number fixed         

 xtrf =   1.000 (top)        1.000 (bottom)
 Mach =   0.000     Re =     0.215 e 6     Ncrit =   9.000

  alpha     CL        CD       CDp       Cm    Top Xtr Bot Xtr   Cpmin    Chinge    XCp    
 ------- -------- --------- --------- -------- ------- ------- -------- --------- ---------
   0.000   1.5985   0.07580   0.06933  -0.2775  0.4446  0.3891  -1.8854   0.0000   0.4171
   1.000   1.7165   0.07487   0.06817  -0.2778  0.4279  0.4345  -2.0354   0.0000   0.4034
   2.000   1.8183   0.07320   0.06669  -0.2754  0.4166  0.4850  -2.1734   0.0000   0.3911
   3.000   1.8911   0.07397   0.06769  -0.2692  0.4062  0.5289  -2.2993   0.0000   0.3799
   4.000   1.9630   0.07404   0.06785  -0.2628  0.3944  0.5729  -2.4530   0.0000   0.3694
   5.000   2.0500   0.07316   0.06727  -0.2590  0.3815  0.6182  -2.6514   0.0000   0.3597
   6.000   2.0884   0.07616   0.07070  -0.2492  0.3691  0.6519  -2.8773   0.0000   0.3503
   7.000   2.1567   0.07733   0.07198  -0.2436  0.3549  0.6919  -3.1970   0.0000   0.3416
   8.000   2.2017   0.08096   0.07615  -0.2363  0.3388  0.7275  -3.4812   0.0000   0.3333
   9.000   2.2392   0.08453   0.07981  -0.2279  0.3189  0.7592  -3.7670   0.0000   0.3251
  10.000   2.2796   0.09012   0.08602  -0.2220  0.3009  0.7934  -4.0983   0.0000   0.3177
  11.000   2.3230   0.09472   0.09078  -0.2164  0.2789  0.8166  -4.4475   0.0000   0.3106
  12.000   2.3097   0.10604   0.10246  -0.2086  0.2518  0.8353  -4.6598   0.0000   0.3044
  13.000   2.2536   0.12452   0.12135  -0.2046  0.2154  0.8467  -4.7451   0.0000   0.3010
  14.000   2.1718   0.14866   0.14570  -0.2075  0.1762  0.8544  -4.7236   0.0000   0.3018
  15.000   2.0953   0.17460   0.17166  -0.2147  0.1418  0.8625  -4.6806   0.0000   0.3046
  17.000   1.9948   0.22315   0.22063  -0.2301  0.0944  1.0000  -4.8792   0.0000   0.3094
  18.000   1.9609   0.24475   0.24230  -0.2362  0.0785  1.0000  -5.2701   0.0000   0.3104
  19.000   1.9254   0.26714   0.26514  -0.2419  0.0693  1.0000  -5.6755   0.0000   0.3114
  20.000   1.8903   0.28766   0.28587  -0.2457  0.0606  1.0000  -6.1271   0.0000   0.3114


