XFLR5 v6.09.05 beta

 Calculated polar for: 25s1223

 1 1 Reynolds number fixed          Mach number fixed         

 xtrf =   1.000 (top)        1.000 (bottom)
 Mach =   0.000     Re =     0.305 e 6     Ncrit =   9.000

  alpha     CL        CD       CDp       Cm    Top Xtr Bot Xtr   Cpmin    Chinge    XCp    
 ------- -------- --------- --------- -------- ------- ------- -------- --------- ---------
   0.000   1.5601   0.08561   0.07957  -0.2745  0.4171  0.3578  -1.8569   0.0000   0.4190
   1.000   1.6578   0.08670   0.08067  -0.2722  0.4049  0.3988  -1.9886   0.0000   0.4052
   2.000   1.7509   0.08635   0.08036  -0.2688  0.3929  0.4531  -2.1180   0.0000   0.3925
   3.000   1.8746   0.08140   0.07540  -0.2691  0.3820  0.5109  -2.2946   0.0000   0.3806
   4.000   1.9397   0.08200   0.07627  -0.2620  0.3738  0.5486  -2.4377   0.0000   0.3700
   5.000   2.0018   0.08260   0.07715  -0.2547  0.3627  0.5814  -2.6040   0.0000   0.3599
   6.000   2.0967   0.07952   0.07407  -0.2517  0.3475  0.6197  -2.9135   0.0000   0.3507
   7.000   2.1291   0.08319   0.07816  -0.2416  0.3377  0.6456  -3.1669   0.0000   0.3416
   8.000   2.1884   0.08530   0.08037  -0.2355  0.3190  0.6744  -3.4823   0.0000   0.3332
   9.000   2.2462   0.08720   0.08265  -0.2296  0.3046  0.7049  -3.8076   0.0000   0.3252
  10.000   2.3031   0.09015   0.08581  -0.2243  0.2851  0.7322  -4.1805   0.0000   0.3176
  11.000   2.3289   0.09638   0.09224  -0.2171  0.2528  0.7548  -4.4905   0.0000   0.3105
  12.000   2.2924   0.11090   0.10688  -0.2095  0.2033  0.7698  -4.6459   0.0000   0.3051
  13.000   2.2205   0.13128   0.12740  -0.2074  0.1612  0.7828  -4.6809   0.0000   0.3033
  14.000   2.1467   0.15461   0.15101  -0.2116  0.1317  0.7906  -4.6734   0.0000   0.3045
  15.000   2.0841   0.17856   0.17523  -0.2182  0.1092  0.7964  -4.6706   0.0000   0.3067
  16.000   2.0364   0.20207   0.19895  -0.2256  0.0905  0.8056  -4.7116   0.0000   0.3088
  17.000   1.9986   0.22440   0.22153  -0.2323  0.0766  0.8177  -4.9634   0.0000   0.3103
  18.000   1.9669   0.24573   0.24304  -0.2383  0.0652  0.8287  -5.3873   0.0000   0.3111
  20.000   1.8897   0.29095   0.28882  -0.2488  0.0490  0.8457  -6.2094   0.0000   0.3130


