XFLR5 v6.09.05 beta

 Calculated polar for: 25s1223

 1 1 Reynolds number fixed          Mach number fixed         

 xtrf =   1.000 (top)        1.000 (bottom)
 Mach =   0.000     Re =     0.015 e 6     Ncrit =   9.000

  alpha     CL        CD       CDp       Cm    Top Xtr Bot Xtr   Cpmin    Chinge    XCp    
 ------- -------- --------- --------- -------- ------- ------- -------- --------- ---------
   0.000  -0.0641   0.12540   0.11932  -0.0021  0.9975  1.0000  -0.6375   0.0000   0.1964
   1.000  -0.0512   0.12112   0.11521  -0.0046  0.9853  1.0000  -0.6395   0.0000   0.1380
   2.000  -0.0477   0.11582   0.11008  -0.0050  0.9717  1.0000  -0.6427   0.0000   0.1249
   3.000  -0.0601   0.11080   0.10526  -0.0019  0.9583  0.9951  -0.6548   0.0000   0.2015
   4.000   0.4989   0.15301   0.14582  -0.1338  0.9418  0.8031  -0.6180   0.0000   0.5029
  14.000   1.3530   0.37324   0.36651  -0.2890  0.6546  1.0000  -1.3633   0.0000   0.4225
  22.000   1.0422   0.36643   0.36404  -0.2338  0.3540  1.0000  -0.9085   0.0000   0.4075
  23.000   1.0264   0.36953   0.36744  -0.2340  0.3350  1.0000  -0.9430   0.0000   0.4071


