XFLR5 v6.09.05 beta

 Calculated polar for: 25s1223

 1 1 Reynolds number fixed          Mach number fixed         

 xtrf =   1.000 (top)        1.000 (bottom)
 Mach =   0.000     Re =     0.270 e 6     Ncrit =   9.000

  alpha     CL        CD       CDp       Cm    Top Xtr Bot Xtr   Cpmin    Chinge    XCp    
 ------- -------- --------- --------- -------- ------- ------- -------- --------- ---------
   0.000   1.5621   0.08319   0.07692  -0.2740  0.4235  0.3668  -1.8563   0.0000   0.4186
   1.000   1.6656   0.08383   0.07764  -0.2725  0.4126  0.4091  -1.9919   0.0000   0.4047
   2.000   1.7741   0.08207   0.07595  -0.2712  0.4013  0.4648  -2.1376   0.0000   0.3920
   3.000   1.8829   0.07899   0.07279  -0.2696  0.3894  0.5192  -2.3011   0.0000   0.3804
   4.000   1.9645   0.07742   0.07144  -0.2644  0.3799  0.5613  -2.4627   0.0000   0.3698
   5.000   2.0171   0.07854   0.07300  -0.2557  0.3694  0.5896  -2.6182   0.0000   0.3597
   6.000   2.0836   0.07913   0.07365  -0.2494  0.3559  0.6256  -2.8854   0.0000   0.3504
   7.000   2.1485   0.07950   0.07430  -0.2434  0.3430  0.6626  -3.1951   0.0000   0.3416
   8.000   2.1857   0.08394   0.07912  -0.2347  0.3267  0.6888  -3.4689   0.0000   0.3331
   9.000   2.2440   0.08607   0.08144  -0.2290  0.3092  0.7199  -3.7950   0.0000   0.3251
  10.000   2.2945   0.08970   0.08548  -0.2231  0.2913  0.7522  -4.1516   0.0000   0.3176
  11.000   2.3331   0.09527   0.09139  -0.2174  0.2664  0.7762  -4.4907   0.0000   0.3105
  12.000   2.3008   0.10905   0.10524  -0.2091  0.2253  0.7930  -4.6587   0.0000   0.3047
  13.000   2.2361   0.12856   0.12491  -0.2064  0.1797  0.8042  -4.7172   0.0000   0.3023
  14.000   2.1500   0.15370   0.15024  -0.2107  0.1456  0.8105  -4.6766   0.0000   0.3040
  15.000   2.0796   0.17919   0.17594  -0.2181  0.1181  0.8176  -4.6485   0.0000   0.3069
  16.000   2.0303   0.20266   0.19959  -0.2253  0.0968  0.8259  -4.6832   0.0000   0.3090
  18.000   1.9678   0.24465   0.24213  -0.2373  0.0705  0.8499  -5.3700   0.0000   0.3105
  19.000   1.9334   0.26698   0.26467  -0.2431  0.0607  0.8631  -5.7922   0.0000   0.3115


