XFLR5 v6.09.05 beta

 Calculated polar for: 25s1223

 1 1 Reynolds number fixed          Mach number fixed         

 xtrf =   1.000 (top)        1.000 (bottom)
 Mach =   0.000     Re =     0.110 e 6     Ncrit =   9.000

  alpha     CL        CD       CDp       Cm    Top Xtr Bot Xtr   Cpmin    Chinge    XCp    
 ------- -------- --------- --------- -------- ------- ------- -------- --------- ---------
   0.000   1.5090   0.06037   0.05347  -0.2553  0.5201  0.4450  -1.7872   0.0000   0.4136
   1.000   1.7062   0.06120   0.05375  -0.2699  0.4973  0.4924  -1.9925   0.0000   0.4008
   2.000   1.7730   0.06627   0.05932  -0.2645  0.4800  0.5370  -2.0904   0.0000   0.3897
   3.000   1.8943   0.06826   0.06124  -0.2665  0.4650  0.6061  -2.2615   0.0000   0.3793
   4.000   1.9201   0.07584   0.06942  -0.2562  0.4500  0.6573  -2.3527   0.0000   0.3697
   5.000   1.9177   0.08469   0.07906  -0.2437  0.4334  0.7034  -2.4228   0.0000   0.3609
   6.000   1.9031   0.09736   0.09231  -0.2336  0.4163  0.7433  -2.4900   0.0000   0.3540
   7.000   1.7251   0.13282   0.12855  -0.2242  0.3859  0.7329  -2.2689   0.0000   0.3580
   8.000   1.6073   0.17294   0.16892  -0.2326  0.3472  0.7338  -2.0752   0.0000   0.3700
   9.000   1.6132   0.18975   0.18619  -0.2370  0.3173  0.7772  -2.1736   0.0000   0.3692
  10.000   1.6161   0.20864   0.20533  -0.2424  0.2856  0.8145  -2.2603   0.0000   0.3692
  11.000   1.6222   0.22709   0.22402  -0.2471  0.2556  0.8460  -2.3489   0.0000   0.3684


