XFLR5 v6.09.05 beta

 Calculated polar for: 5s1223

 1 1 Reynolds number fixed          Mach number fixed         

 xtrf =   1.000 (top)        1.000 (bottom)
 Mach =   0.000     Re =     0.300 e 6     Ncrit =   9.000

  alpha     CL        CD       CDp       Cm    Top Xtr Bot Xtr   Cpmin    Chinge    XCp    
 ------- -------- --------- --------- -------- ------- ------- -------- --------- ---------
   0.000   1.3617   0.02000   0.01221  -0.2861  0.4399  0.3183  -1.6539   0.0000   0.4575
   1.000   1.4764   0.02130   0.01327  -0.2864  0.4199  0.3642  -1.7903   0.0000   0.4397
   2.000   1.5861   0.02241   0.01456  -0.2858  0.4087  0.4415  -1.9252   0.0000   0.4241
   3.000   1.6905   0.02375   0.01612  -0.2842  0.3974  0.5683  -2.0575   0.0000   0.4102
   4.000   1.8033   0.02545   0.01793  -0.2843  0.3840  0.6990  -2.2054   0.0000   0.3979
   5.000   1.8977   0.02692   0.01971  -0.2810  0.3762  0.8133  -2.3567   0.0000   0.3865
   6.000   1.9745   0.02844   0.02143  -0.2745  0.3666  1.0000  -2.5283   0.0000   0.3755
   7.000   2.0525   0.03048   0.02360  -0.2685  0.3540  1.0000  -2.7354   0.0000   0.3653
   8.000   2.1324   0.03295   0.02632  -0.2634  0.3426  1.0000  -3.0626   0.0000   0.3559
   9.000   2.1793   0.03554   0.02919  -0.2525  0.3296  1.0000  -3.3464   0.0000   0.3460
  10.000   2.2260   0.03877   0.03264  -0.2424  0.3117  1.0000  -3.6381   0.0000   0.3368
  11.000   2.2581   0.04262   0.03697  -0.2309  0.2984  1.0000  -3.9244   0.0000   0.3278


