XFLR5 v6.09.05 beta

 Calculated polar for: 5s1223

 1 1 Reynolds number fixed          Mach number fixed         

 xtrf =   1.000 (top)        1.000 (bottom)
 Mach =   0.000     Re =     0.110 e 6     Ncrit =   9.000

  alpha     CL        CD       CDp       Cm    Top Xtr Bot Xtr   Cpmin    Chinge    XCp    
 ------- -------- --------- --------- -------- ------- ------- -------- --------- ---------
   0.000   1.3821   0.02547   0.01661  -0.2900  0.5365  0.4355  -1.6387   0.0000   0.4576
   1.000   1.5243   0.02743   0.01827  -0.2967  0.5110  0.4991  -1.7847   0.0000   0.4407
   2.000   1.6586   0.03021   0.02088  -0.3014  0.4903  0.6060  -1.9270   0.0000   0.4261
   3.000   1.7445   0.03235   0.02344  -0.2962  0.4751  0.7479  -2.0414   0.0000   0.4123
   4.000   1.8447   0.03483   0.02612  -0.2948  0.4610  1.0000  -2.1825   0.0000   0.4005
   5.000   1.9343   0.03960   0.03104  -0.2920  0.4471  1.0000  -2.3345   0.0000   0.3899
   6.000   1.9942   0.04396   0.03580  -0.2833  0.4329  1.0000  -2.4810   0.0000   0.3791
   7.000   2.0817   0.04967   0.04178  -0.2804  0.4168  1.0000  -2.7094   0.0000   0.3697


