XFLR5 v6.09.05 beta

 Calculated polar for: 5s1223

 1 1 Reynolds number fixed          Mach number fixed         

 xtrf =   1.000 (top)        1.000 (bottom)
 Mach =   0.000     Re =     0.125 e 6     Ncrit =   9.000

  alpha     CL        CD       CDp       Cm    Top Xtr Bot Xtr   Cpmin    Chinge    XCp    
 ------- -------- --------- --------- -------- ------- ------- -------- --------- ---------
   0.000   1.3883   0.02455   0.01572  -0.2915  0.5198  0.4181  -1.6477   0.0000   0.4577
   1.000   1.5296   0.02635   0.01719  -0.2976  0.4951  0.4801  -1.7973   0.0000   0.4405
   2.000   1.6460   0.02846   0.01947  -0.2986  0.4779  0.5798  -1.9260   0.0000   0.4257
   3.000   1.7519   0.03057   0.02164  -0.2972  0.4613  0.7226  -2.0602   0.0000   0.4121
   4.000   1.8510   0.03348   0.02495  -0.2956  0.4489  1.0000  -2.1969   0.0000   0.4004
   5.000   1.9369   0.03665   0.02829  -0.2914  0.4348  1.0000  -2.3485   0.0000   0.3893
   6.000   2.0358   0.04028   0.03187  -0.2899  0.4207  1.0000  -2.5451   0.0000   0.3793
   7.000   2.0802   0.04529   0.03769  -0.2785  0.4076  1.0000  -2.7197   0.0000   0.3689
   8.000   2.1150   0.04902   0.04180  -0.2652  0.3920  1.0000  -2.9656   0.0000   0.3583


