XFLR5 v6.09.05 beta

 Calculated polar for: 5s1223

 1 1 Reynolds number fixed          Mach number fixed         

 xtrf =   1.000 (top)        1.000 (bottom)
 Mach =   0.000     Re =     0.290 e 6     Ncrit =   9.000

  alpha     CL        CD       CDp       Cm    Top Xtr Bot Xtr   Cpmin    Chinge    XCp    
 ------- -------- --------- --------- -------- ------- ------- -------- --------- ---------
   0.000   1.3627   0.02013   0.01229  -0.2864  0.4422  0.3232  -1.6538   0.0000   0.4576
   1.000   1.4742   0.02137   0.01334  -0.2860  0.4236  0.3686  -1.7882   0.0000   0.4397
   2.000   1.5883   0.02258   0.01466  -0.2863  0.4105  0.4454  -1.9256   0.0000   0.4242
   3.000   1.6930   0.02391   0.01625  -0.2847  0.3993  0.5739  -2.0577   0.0000   0.4103
   4.000   1.7976   0.02553   0.01801  -0.2832  0.3874  0.7020  -2.2002   0.0000   0.3978
   6.000   1.9783   0.02868   0.02163  -0.2753  0.3682  1.0000  -2.5310   0.0000   0.3756
   7.000   2.0529   0.03068   0.02379  -0.2686  0.3561  1.0000  -2.7348   0.0000   0.3653
   8.000   2.1370   0.03323   0.02653  -0.2643  0.3437  1.0000  -3.0689   0.0000   0.3560
   9.000   2.1819   0.03582   0.02944  -0.2530  0.3310  1.0000  -3.3492   0.0000   0.3461
  10.000   2.2290   0.03898   0.03279  -0.2429  0.3125  1.0000  -3.6420   0.0000   0.3369
  11.000   2.2572   0.04292   0.03724  -0.2308  0.2997  1.0000  -3.9205   0.0000   0.3278


