XFLR5 v6.09.05 beta

 Calculated polar for: 5s1223

 1 1 Reynolds number fixed          Mach number fixed         

 xtrf =   1.000 (top)        1.000 (bottom)
 Mach =   0.000     Re =     0.340 e 6     Ncrit =   9.000

  alpha     CL        CD       CDp       Cm    Top Xtr Bot Xtr   Cpmin    Chinge    XCp    
 ------- -------- --------- --------- -------- ------- ------- -------- --------- ---------
   0.000   1.3653   0.01948   0.01182  -0.2869  0.4308  0.3089  -1.6594   0.0000   0.4575
   1.000   1.4756   0.02072   0.01296  -0.2863  0.4138  0.3561  -1.7928   0.0000   0.4396
   2.000   1.5803   0.02186   0.01420  -0.2846  0.4017  0.4267  -1.9252   0.0000   0.4240
   3.000   1.6851   0.02332   0.01575  -0.2831  0.3890  0.5481  -2.0583   0.0000   0.4101
   4.000   1.7960   0.02479   0.01753  -0.2829  0.3789  0.6824  -2.2031   0.0000   0.3977
   5.000   1.8856   0.02629   0.01925  -0.2786  0.3706  0.7773  -2.3500   0.0000   0.3861
   6.000   1.9624   0.02768   0.02085  -0.2720  0.3607  1.0000  -2.5201   0.0000   0.3750
   7.000   2.0584   0.02987   0.02314  -0.2697  0.3461  1.0000  -2.7481   0.0000   0.3654
   8.000   2.1194   0.03208   0.02566  -0.2609  0.3379  1.0000  -3.0454   0.0000   0.3554
   9.000   2.1711   0.03473   0.02845  -0.2509  0.3237  1.0000  -3.3377   0.0000   0.3457
  10.000   2.2214   0.03797   0.03204  -0.2416  0.3082  1.0000  -3.6345   0.0000   0.3366
  11.000   2.2614   0.04173   0.03613  -0.2315  0.2934  1.0000  -3.9380   0.0000   0.3279
  12.000   2.2939   0.04667   0.04141  -0.2216  0.2761  1.0000  -4.2521   0.0000   0.3196


