XFLR5 v6.09.05 beta

 Calculated polar for: 5s1223

 1 1 Reynolds number fixed          Mach number fixed         

 xtrf =   1.000 (top)        1.000 (bottom)
 Mach =   0.000     Re =     0.075 e 6     Ncrit =   9.000

  alpha     CL        CD       CDp       Cm    Top Xtr Bot Xtr   Cpmin    Chinge    XCp    
 ------- -------- --------- --------- -------- ------- ------- -------- --------- ---------
   0.000   1.3375   0.02902   0.02018  -0.2809  0.6019  0.4919  -1.5876   0.0000   0.4580
   1.000   1.5027   0.03139   0.02196  -0.2925  0.5658  0.5650  -1.7450   0.0000   0.4410
   2.000   1.5989   0.03435   0.02512  -0.2903  0.5442  0.6610  -1.8457   0.0000   0.4262
   3.000   1.6990   0.03779   0.02864  -0.2890  0.5241  0.8542  -1.9678   0.0000   0.4129
   4.000   1.7765   0.04329   0.03453  -0.2856  0.5075  1.0000  -2.0748   0.0000   0.4019
   5.000   1.8719   0.05028   0.04136  -0.2847  0.4905  1.0000  -2.2277   0.0000   0.3915


