XFLR5 v6.09.05 beta

 Calculated polar for: 5s1223

 1 1 Reynolds number fixed          Mach number fixed         

 xtrf =   1.000 (top)        1.000 (bottom)
 Mach =   0.000     Re =     0.235 e 6     Ncrit =   9.000

  alpha     CL        CD       CDp       Cm    Top Xtr Bot Xtr   Cpmin    Chinge    XCp    
 ------- -------- --------- --------- -------- ------- ------- -------- --------- ---------
   1.000   1.4824   0.02218   0.01399  -0.2877  0.4400  0.3922  -1.7875   0.0000   0.4398
   2.000   1.5990   0.02359   0.01529  -0.2885  0.4232  0.4731  -1.9269   0.0000   0.4244
   3.000   1.7155   0.02516   0.01713  -0.2893  0.4115  0.6104  -2.0646   0.0000   0.4108
   4.000   1.8128   0.02675   0.01903  -0.2863  0.4011  0.7366  -2.2028   0.0000   0.3983
   5.000   1.9019   0.02807   0.02052  -0.2819  0.3896  1.0000  -2.3532   0.0000   0.3867
   6.000   2.0090   0.03063   0.02313  -0.2818  0.3781  1.0000  -2.5548   0.0000   0.3768
   7.000   2.0736   0.03273   0.02566  -0.2731  0.3668  1.0000  -2.7582   0.0000   0.3663
   8.000   2.1441   0.03493   0.02794  -0.2659  0.3541  1.0000  -3.0722   0.0000   0.3565
   9.000   2.1990   0.03811   0.03159  -0.2565  0.3403  1.0000  -3.3674   0.0000   0.3470
  10.000   2.2270   0.04093   0.03467  -0.2428  0.3239  1.0000  -3.6270   0.0000   0.3370


