XFLR5 v6.09.05 beta

 Calculated polar for: 5s1223

 1 1 Reynolds number fixed          Mach number fixed         

 xtrf =   1.000 (top)        1.000 (bottom)
 Mach =   0.000     Re =     0.255 e 6     Ncrit =   9.000

  alpha     CL        CD       CDp       Cm    Top Xtr Bot Xtr   Cpmin    Chinge    XCp    
 ------- -------- --------- --------- -------- ------- ------- -------- --------- ---------
   0.000   1.3662   0.02073   0.01269  -0.2871  0.4501  0.3384  -1.6533   0.0000   0.4576
   1.000   1.4773   0.02179   0.01372  -0.2866  0.4341  0.3832  -1.7867   0.0000   0.4397
   2.000   1.6036   0.02329   0.01506  -0.2895  0.4161  0.4646  -1.9324   0.0000   0.4245
   3.000   1.7049   0.02463   0.01675  -0.2871  0.4069  0.5954  -2.0604   0.0000   0.4106
   4.000   1.8033   0.02615   0.01855  -0.2843  0.3962  0.7227  -2.1994   0.0000   0.3980
   5.000   1.9185   0.02797   0.02044  -0.2854  0.3815  1.0000  -2.3706   0.0000   0.3872
   6.000   1.9947   0.02978   0.02247  -0.2788  0.3745  1.0000  -2.5431   0.0000   0.3763
   7.000   2.0651   0.03178   0.02479  -0.2712  0.3626  1.0000  -2.7487   0.0000   0.3658
   8.000   2.1590   0.03457   0.02759  -0.2688  0.3469  1.0000  -3.1004   0.0000   0.3569
   9.000   2.1912   0.03715   0.03074  -0.2549  0.3368  1.0000  -3.3584   0.0000   0.3466
  10.000   2.2278   0.03996   0.03366  -0.2427  0.3192  1.0000  -3.6340   0.0000   0.3369


