XFLR5 v6.09.05 beta

 Calculated polar for: 5s1223

 1 1 Reynolds number fixed          Mach number fixed         

 xtrf =   1.000 (top)        1.000 (bottom)
 Mach =   0.000     Re =     0.320 e 6     Ncrit =   9.000

  alpha     CL        CD       CDp       Cm    Top Xtr Bot Xtr   Cpmin    Chinge    XCp    
 ------- -------- --------- --------- -------- ------- ------- -------- --------- ---------
   0.000   1.3637   0.01970   0.01200  -0.2866  0.4353  0.3143  -1.6569   0.0000   0.4575
   1.000   1.4775   0.02103   0.01312  -0.2867  0.4160  0.3598  -1.7925   0.0000   0.4397
   2.000   1.5829   0.02211   0.01438  -0.2852  0.4051  0.4339  -1.9251   0.0000   0.4240
   3.000   1.6865   0.02351   0.01591  -0.2834  0.3934  0.5576  -2.0573   0.0000   0.4101
   4.000   1.8032   0.02516   0.01774  -0.2843  0.3806  0.6911  -2.2069   0.0000   0.3979
   5.000   1.8916   0.02659   0.01947  -0.2798  0.3734  0.7928  -2.3533   0.0000   0.3863
   6.000   1.9678   0.02802   0.02111  -0.2731  0.3635  1.0000  -2.5237   0.0000   0.3752
   7.000   2.0651   0.03026   0.02340  -0.2710  0.3477  1.0000  -2.7571   0.0000   0.3657
   8.000   2.1248   0.03249   0.02598  -0.2619  0.3403  1.0000  -3.0521   0.0000   0.3556
   9.000   2.1744   0.03508   0.02878  -0.2515  0.3267  1.0000  -3.3409   0.0000   0.3458
  10.000   2.2226   0.03836   0.03234  -0.2418  0.3100  1.0000  -3.6345   0.0000   0.3367
  11.000   2.2599   0.04212   0.03650  -0.2313  0.2959  1.0000  -3.9317   0.0000   0.3278


