XFLR5 v6.09.05 beta

 Calculated polar for: 5s1223

 1 1 Reynolds number fixed          Mach number fixed         

 xtrf =   1.000 (top)        1.000 (bottom)
 Mach =   0.000     Re =     0.160 e 6     Ncrit =   9.000

  alpha     CL        CD       CDp       Cm    Top Xtr Bot Xtr   Cpmin    Chinge    XCp    
 ------- -------- --------- --------- -------- ------- ------- -------- --------- ---------
   0.000   1.3869   0.02311   0.01441  -0.2912  0.4901  0.3876  -1.6557   0.0000   0.4576
   1.000   1.5049   0.02433   0.01560  -0.2924  0.4713  0.4408  -1.7898   0.0000   0.4401
   2.000   1.6492   0.02645   0.01754  -0.2991  0.4522  0.5441  -1.9455   0.0000   0.4255
   3.000   1.7433   0.02811   0.01961  -0.2952  0.4397  0.6749  -2.0674   0.0000   0.4117
   4.000   1.8439   0.02978   0.02157  -0.2930  0.4273  0.8513  -2.2103   0.0000   0.3994
   5.000   1.9540   0.03304   0.02481  -0.2938  0.4141  1.0000  -2.3843   0.0000   0.3890
   6.000   2.0263   0.03568   0.02777  -0.2866  0.4025  1.0000  -2.5510   0.0000   0.3782
   7.000   2.1070   0.03812   0.03046  -0.2811  0.3888  1.0000  -2.7907   0.0000   0.3681
   8.000   2.1604   0.04229   0.03507  -0.2713  0.3752  1.0000  -3.0700   0.0000   0.3583
   9.000   2.1876   0.04543   0.03865  -0.2566  0.3603  1.0000  -3.3151   0.0000   0.3479


