XFLR5 v6.09.05 beta

 Calculated polar for: 5s1223

 1 1 Reynolds number fixed          Mach number fixed         

 xtrf =   1.000 (top)        1.000 (bottom)
 Mach =   0.000     Re =     0.025 e 6     Ncrit =   9.000

  alpha     CL        CD       CDp       Cm    Top Xtr Bot Xtr   Cpmin    Chinge    XCp    
 ------- -------- --------- --------- -------- ------- ------- -------- --------- ---------
   0.000  -0.3263   0.12192   0.11709   0.0175  1.0000  0.4383  -0.8933   0.0000   0.2968
   1.000  -0.3038   0.11645   0.11185   0.0197  0.9931  0.5573  -0.8571   0.0000   0.3080
   2.000  -0.3135   0.10611   0.10183   0.0430  0.9870  0.7883  -0.8218   0.0000   0.3815
   3.000  -0.2372   0.09763   0.09340   0.0359  0.9761  0.9251  -0.7893   0.0000   0.3946
   4.000  -0.2222   0.09342   0.08925   0.0312  0.9576  0.9097  -0.8061   0.0000   0.3836
   5.000   0.6788   0.13866   0.13147  -0.1926  0.9293  0.8603  -0.7598   0.0000   0.5259
  12.000   1.2177   0.23860   0.22895  -0.2611  0.6427  1.0000  -1.2451   0.0000   0.4429
  13.000   1.2488   0.25396   0.24448  -0.2632  0.6007  1.0000  -1.3113   0.0000   0.4371
  14.000   1.2627   0.26289   0.25367  -0.2648  0.5545  1.0000  -1.3516   0.0000   0.4337
  15.000   1.2853   0.27983   0.27091  -0.2672  0.5154  1.0000  -1.3879   0.0000   0.4296
  16.000   1.3027   0.29757   0.28934  -0.2692  0.4735  1.0000  -1.4046   0.0000   0.4260
  17.000   1.3122   0.31714   0.30928  -0.2708  0.4388  1.0000  -1.4187   0.0000   0.4233
  18.000   1.3154   0.33936   0.33190  -0.2710  0.4108  1.0000  -1.4047   0.0000   0.4204


