XFLR5 v6.09.05 beta

 Calculated polar for: S1223

 1 1 Reynolds number fixed          Mach number fixed         

 xtrf =   1.000 (top)        1.000 (bottom)
 Mach =   0.000     Re =     0.190 e 6     Ncrit =   9.000

  alpha     CL        CD       CDp       Cm    Top Xtr Bot Xtr   Cpmin    Chinge    XCp    
 ------- -------- --------- --------- -------- ------- ------- -------- --------- ---------
 -13.500  -0.2624   0.17842   0.17449  -0.0194  1.0000  0.0219  -1.0415   0.0000   0.1539
 -13.000  -0.2522   0.17387   0.16999  -0.0197  1.0000  0.0222  -1.0376   0.0000   0.1499
 -12.500  -0.2427   0.16941   0.16558  -0.0198  1.0000  0.0225  -1.0343   0.0000   0.1465
 -12.000  -0.2338   0.16505   0.16128  -0.0198  1.0000  0.0229  -1.0320   0.0000   0.1439
 -11.500  -0.2257   0.16081   0.15711  -0.0195  1.0000  0.0233  -1.0306   0.0000   0.1422
 -11.000  -0.2185   0.15671   0.15308  -0.0191  1.0000  0.0237  -1.0304   0.0000   0.1416
 -10.500  -0.2122   0.15273   0.14916  -0.0185  1.0000  0.0242  -1.0319   0.0000   0.1425
 -10.000  -0.2071   0.14888   0.14539  -0.0177  1.0000  0.0247  -1.0355   0.0000   0.1450
  -9.500  -0.1969   0.14467   0.14122  -0.0183  0.9991  0.0254  -1.0379   0.0000   0.1372
  -9.000  -0.1496   0.13729   0.13382  -0.0290  0.9918  0.0265  -1.0266   0.0000   0.0299
  -8.500  -0.1093   0.13073   0.12725  -0.0378  0.9839  0.0278  -1.0318   0.0000  -0.1322
  -8.000  -0.0727   0.12543   0.12196  -0.0468  0.9745  0.0289  -1.0650   0.0000  -0.4470
  -7.500  -0.0397   0.12065   0.11719  -0.0557  0.9632  0.0295  -1.1053   0.0000  -1.2471
  -7.000  -0.0049   0.11490   0.11146  -0.0630  0.9511  0.0298  -1.1160   0.0000  -13.3396
  -6.500   0.0314   0.10855   0.10513  -0.0699  0.9384  0.0299  -1.1190   0.0000   2.5850
  -6.000   0.0728   0.10164   0.09823  -0.0779  0.9270  0.0300  -1.1215   0.0000   1.3647
  -5.500   0.0924   0.09166   0.08832  -0.0800  0.9093  0.0313  -1.1640   0.0000   1.1481
  -5.000   0.1271   0.08494   0.08161  -0.0806  0.8899  0.0330  -1.0257   0.0000   0.9051
  -4.500   0.1522   0.07957   0.07628  -0.0816  0.8644  0.0348  -0.9636   0.0000   0.8008
  -4.000   0.1977   0.07273   0.06940  -0.0882  0.8335  0.0377  -0.9134   0.0000   0.7058
  -3.500   0.2910   0.06350   0.05989  -0.1096  0.7779  0.0440  -0.9128   0.0000   0.6324
  -2.500   0.4534   0.04860   0.04385  -0.1419  0.6223  0.0527  -0.9978   0.0000   0.5653
  -1.500   0.7659   0.02777   0.02168  -0.2145  0.5459  0.0758  -1.1789   0.0000   0.5300
  -1.000   1.0149   0.01889   0.01045  -0.2593  0.5164  0.0567  -1.3393   0.0000   0.5047
  -0.500   1.0972   0.01839   0.00957  -0.2643  0.4988  0.0570  -1.4114   0.0000   0.4894
   0.500   1.2397   0.01902   0.01048  -0.2702  0.4724  0.3478  -1.5493   0.0000   0.4648
   1.000   1.3005   0.01960   0.01091  -0.2710  0.4622  0.3810  -1.6175   0.0000   0.4544
   1.500   1.3687   0.02052   0.01163  -0.2735  0.4522  0.4082  -1.6892   0.0000   0.4450
   2.000   1.4270   0.02091   0.01217  -0.2739  0.4464  0.4474  -1.7552   0.0000   0.4363
   2.500   1.4852   0.02137   0.01276  -0.2743  0.4387  0.5066  -1.8221   0.0000   0.4282
   3.000   1.5431   0.02190   0.01347  -0.2745  0.4313  0.6064  -1.8897   0.0000   0.4206
   3.500   1.5941   0.02245   0.01428  -0.2732  0.4249  0.7918  -1.9527   0.0000   0.4132
   4.500   1.6966   0.02461   0.01652  -0.2715  0.4139  1.0000  -2.0879   0.0000   0.4001
   5.000   1.7462   0.02551   0.01748  -0.2704  0.4091  1.0000  -2.1636   0.0000   0.3940
   5.500   1.7942   0.02638   0.01840  -0.2688  0.4028  1.0000  -2.2422   0.0000   0.3881
   6.000   1.8433   0.02738   0.01943  -0.2676  0.3972  1.0000  -2.3336   0.0000   0.3826
   6.500   1.8926   0.02831   0.02033  -0.2664  0.3910  1.0000  -2.4310   0.0000   0.3772
   7.000   1.9448   0.03056   0.02256  -0.2664  0.3827  1.0000  -2.5349   0.0000   0.3725
   7.500   1.9841   0.03149   0.02387  -0.2633  0.3782  1.0000  -2.6430   0.0000   0.3672
   8.000   2.0200   0.03239   0.02498  -0.2596  0.3719  1.0000  -2.7820   0.0000   0.3620
   8.500   2.0568   0.03334   0.02609  -0.2561  0.3650  1.0000  -2.9386   0.0000   0.3570
   9.000   2.0967   0.03414   0.02694  -0.2532  0.3582  1.0000  -3.1047   0.0000   0.3522
   9.500   2.1435   0.03629   0.02906  -0.2523  0.3478  1.0000  -3.2846   0.0000   0.3481
  10.000   2.1600   0.03698   0.03018  -0.2450  0.3428  1.0000  -3.4141   0.0000   0.3427
  10.500   2.1680   0.03802   0.03149  -0.2362  0.3352  1.0000  -3.5295   0.0000   0.3373
  11.000   2.1864   0.03844   0.03199  -0.2294  0.3260  1.0000  -3.6689   0.0000   0.3321
  11.500   2.2214   0.03966   0.03313  -0.2263  0.3146  1.0000  -3.8500   0.0000   0.3279
  12.000   2.2124   0.04161   0.03552  -0.2157  0.3087  1.0000  -3.9495   0.0000   0.3224
  12.500   2.2134   0.04374   0.03796  -0.2076  0.3000  1.0000  -4.0706   0.0000   0.3176
  13.000   2.2225   0.04550   0.03985  -0.2012  0.2909  1.0000  -4.2123   0.0000   0.3131
  13.500   2.2281   0.04819   0.04275  -0.1951  0.2809  1.0000  -4.3448   0.0000   0.3089
  14.000   2.2109   0.05249   0.04748  -0.1875  0.2707  1.0000  -4.4218   0.0000   0.3048
  14.500   2.2072   0.05634   0.05142  -0.1823  0.2583  1.0000  -4.5316   0.0000   0.3013
  15.000   2.1884   0.06285   0.05825  -0.1777  0.2454  1.0000  -4.5970   0.0000   0.2985


