XFLR5 v6.09.05 beta

 Calculated polar for: S1223

 1 1 Reynolds number fixed          Mach number fixed         

 xtrf =   1.000 (top)        1.000 (bottom)
 Mach =   0.000     Re =     0.350 e 6     Ncrit =   9.000

  alpha     CL        CD       CDp       Cm    Top Xtr Bot Xtr   Cpmin    Chinge    XCp    
 ------- -------- --------- --------- -------- ------- ------- -------- --------- ---------
 -14.500  -0.2920   0.19238   0.18945  -0.0174  1.0000  0.0169  -1.1501   0.0000   0.1693
 -14.000  -0.2816   0.18769   0.18477  -0.0180  1.0000  0.0170  -1.1538   0.0000   0.1652
 -13.500  -0.2717   0.18309   0.18020  -0.0184  1.0000  0.0170  -1.1581   0.0000   0.1615
 -13.000  -0.2625   0.17857   0.17572  -0.0186  1.0000  0.0170  -1.1633   0.0000   0.1584
 -12.500  -0.2539   0.17414   0.17133  -0.0187  1.0000  0.0170  -1.1695   0.0000   0.1558
 -12.000  -0.2461   0.16985   0.16708  -0.0186  1.0000  0.0170  -1.1767   0.0000   0.1542
 -11.500  -0.2144   0.16330   0.16053  -0.0255  0.9968  0.0170  -1.1730   0.0000   0.1083
 -11.000  -0.1721   0.15559   0.15279  -0.0351  0.9913  0.0170  -1.1650   0.0000   0.0169
 -10.500  -0.1346   0.14828   0.14547  -0.0432  0.9864  0.0171  -1.1591   0.0000  -0.1080
 -10.000  -0.0998   0.14128   0.13845  -0.0503  0.9818  0.0171  -1.1551   0.0000  -0.3035
  -9.500  -0.0707   0.13474   0.13192  -0.0556  0.9758  0.0171  -1.1539   0.0000  -0.6049
  -9.000  -0.0346   0.12784   0.12501  -0.0629  0.9719  0.0171  -1.1504   0.0000  -1.7061
  -8.500  -0.0065   0.12145   0.11864  -0.0675  0.9639  0.0171  -1.1509   0.0000  -10.7536
  -8.000   0.0336   0.11426   0.11145  -0.0754  0.9598  0.0172  -1.1467   0.0000   2.6272
  -7.500   0.0592   0.10819   0.10540  -0.0790  0.9490  0.0172  -1.1499   0.0000   1.6554
  -6.500   0.1130   0.09174   0.08901  -0.0889  0.9295  0.0180  -1.3054   0.0000   1.0707
  -6.000   0.1372   0.08591   0.08322  -0.0900  0.9132  0.0186  -1.2358   0.0000   0.9309
  -5.500   0.1589   0.08093   0.07824  -0.0903  0.8917  0.0192  -1.1653   0.0000   0.8378
  -5.000   0.1890   0.07552   0.07281  -0.0933  0.8643  0.0199  -1.1032   0.0000   0.7583
  -4.500   0.2724   0.06681   0.06388  -0.1103  0.8171  0.0214  -1.0099   0.0000   0.6645
  -4.000   0.3531   0.05943   0.05574  -0.1271  0.6942  0.0234  -0.9541   0.0000   0.6167
  -3.500   0.3614   0.05638   0.05229  -0.1256  0.6139  0.0246  -0.9669   0.0000   0.6028
  -3.000   0.3868   0.05211   0.04776  -0.1290  0.5685  0.0264  -0.9911   0.0000   0.5874
  -2.500   0.4550   0.04642   0.04185  -0.1432  0.5377  0.0297  -1.0298   0.0000   0.5669
  -2.000   0.6464   0.02861   0.02351  -0.1957  0.5104  0.0342  -1.1797   0.0000   0.5536
  -1.500   0.9348   0.01641   0.00899  -0.2532  0.4799  0.0269  -1.2774   0.0000   0.5209
  -1.000   1.0093   0.01602   0.00821  -0.2570  0.4625  0.0313  -1.3466   0.0000   0.5038
  -0.500   1.0857   0.01569   0.00774  -0.2615  0.4483  0.0408  -1.4179   0.0000   0.4892
   0.000   1.1603   0.01551   0.00736  -0.2650  0.4375  0.0421  -1.4888   0.0000   0.4759
   0.500   1.2373   0.01555   0.00763  -0.2694  0.4260  0.2713  -1.5633   0.0000   0.4644
   1.000   1.2952   0.01624   0.00828  -0.2696  0.4161  0.3166  -1.6302   0.0000   0.4540
   1.500   1.3534   0.01647   0.00859  -0.2698  0.4117  0.3469  -1.6986   0.0000   0.4444
   2.000   1.4106   0.01679   0.00895  -0.2699  0.4056  0.3769  -1.7669   0.0000   0.4355
   2.500   1.4667   0.01718   0.00937  -0.2697  0.3991  0.4213  -1.8351   0.0000   0.4272
   3.000   1.5240   0.01769   0.00995  -0.2700  0.3928  0.4899  -1.9043   0.0000   0.4196
   3.500   1.5904   0.01848   0.01086  -0.2722  0.3846  0.6016  -1.9789   0.0000   0.4128
   4.000   1.6512   0.01900   0.01172  -0.2731  0.3805  0.7853  -2.0516   0.0000   0.4061
   5.000   1.7378   0.01975   0.01271  -0.2675  0.3738  1.0000  -2.1841   0.0000   0.3929
   5.500   1.7857   0.02035   0.01331  -0.2659  0.3689  1.0000  -2.2623   0.0000   0.3870
   6.000   1.8333   0.02100   0.01396  -0.2642  0.3642  1.0000  -2.3491   0.0000   0.3813
   6.500   1.8779   0.02169   0.01463  -0.2620  0.3587  1.0000  -2.4427   0.0000   0.3757
   7.000   1.9331   0.02284   0.01572  -0.2622  0.3505  1.0000  -2.5489   0.0000   0.3709
   7.500   1.9769   0.02365   0.01676  -0.2600  0.3458  1.0000  -2.6620   0.0000   0.3657
   8.000   2.0141   0.02430   0.01756  -0.2563  0.3422  1.0000  -2.8031   0.0000   0.3605
   8.500   2.0491   0.02498   0.01836  -0.2523  0.3368  1.0000  -2.9584   0.0000   0.3554
   9.000   2.0815   0.02570   0.01915  -0.2479  0.3303  1.0000  -3.1125   0.0000   0.3503
   9.500   2.1125   0.02660   0.02006  -0.2434  0.3227  1.0000  -3.2671   0.0000   0.3454
  10.000   2.1461   0.02781   0.02142  -0.2396  0.3131  1.0000  -3.4277   0.0000   0.3407
  10.500   2.1706   0.02871   0.02255  -0.2341  0.3076  1.0000  -3.5748   0.0000   0.3358
  11.000   2.1965   0.02982   0.02384  -0.2291  0.3006  1.0000  -3.7261   0.0000   0.3312
  11.500   2.2189   0.03121   0.02532  -0.2237  0.2926  1.0000  -3.8879   0.0000   0.3266
  12.000   2.2397   0.03311   0.02730  -0.2185  0.2827  1.0000  -4.0525   0.0000   0.3221
  12.500   2.2616   0.03470   0.02918  -0.2136  0.2754  1.0000  -4.2215   0.0000   0.3179
  13.000   2.2735   0.03698   0.03159  -0.2078  0.2616  1.0000  -4.3715   0.0000   0.3136
  13.500   2.2767   0.04027   0.03495  -0.2015  0.2403  1.0000  -4.5021   0.0000   0.3095
  14.000   2.2661   0.04529   0.03993  -0.1949  0.2132  1.0000  -4.5992   0.0000   0.3057
  14.500   2.2419   0.05229   0.04692  -0.1887  0.1874  1.0000  -4.6594   0.0000   0.3025
  15.000   2.2103   0.06127   0.05596  -0.1842  0.1670  1.0000  -4.6949   0.0000   0.3003
  15.500   2.1696   0.07265   0.06748  -0.1819  0.1509  1.0000  -4.6987   0.0000   0.2994
  16.000   2.1346   0.08420   0.07925  -0.1817  0.1386  1.0000  -4.7083   0.0000   0.2992
  16.500   2.0824   0.09875   0.09401  -0.1837  0.1286  1.0000  -4.6596   0.0000   0.3008
  17.000   2.0468   0.11076   0.10625  -0.1860  0.1199  1.0000  -4.6498   0.0000   0.3020


