XFLR5 v6.09.05 beta

 Calculated polar for: S1223

 1 1 Reynolds number fixed          Mach number fixed         

 xtrf =   1.000 (top)        1.000 (bottom)
 Mach =   0.000     Re =     0.215 e 6     Ncrit =   9.000

  alpha     CL        CD       CDp       Cm    Top Xtr Bot Xtr   Cpmin    Chinge    XCp    
 ------- -------- --------- --------- -------- ------- ------- -------- --------- ---------
 -14.500  -0.2879   0.18742   0.18366  -0.0188  1.0000  0.0187  -1.1843   0.0000   0.1626
 -14.000  -0.2766   0.18258   0.17884  -0.0192  1.0000  0.0189  -1.1667   0.0000   0.1584
 -13.500  -0.2658   0.17787   0.17417  -0.0195  1.0000  0.0191  -1.1502   0.0000   0.1546
 -13.000  -0.2556   0.17327   0.16962  -0.0197  1.0000  0.0193  -1.1353   0.0000   0.1512
 -12.500  -0.2460   0.16880   0.16520  -0.0197  1.0000  0.0196  -1.1218   0.0000   0.1483
 -12.000  -0.2370   0.16444   0.16090  -0.0195  1.0000  0.0199  -1.1099   0.0000   0.1462
 -11.500  -0.2289   0.16022   0.15674  -0.0192  1.0000  0.0202  -1.0996   0.0000   0.1450
 -11.000  -0.2217   0.15615   0.15273  -0.0187  1.0000  0.0205  -1.0912   0.0000   0.1449
 -10.500  -0.2154   0.15219   0.14884  -0.0180  1.0000  0.0209  -1.0848   0.0000   0.1462
 -10.000  -0.2101   0.14835   0.14507  -0.0172  1.0000  0.0213  -1.0805   0.0000   0.1488
  -9.500  -0.1620   0.14084   0.13751  -0.0278  0.9936  0.0221  -1.0497   0.0000   0.0523
  -9.000  -0.1224   0.13392   0.13059  -0.0361  0.9871  0.0229  -1.0274   0.0000  -0.0789
  -8.500  -0.0834   0.12714   0.12381  -0.0441  0.9808  0.0238  -1.0090   0.0000  -0.3282
  -8.000  -0.0476   0.12051   0.11719  -0.0510  0.9722  0.0249  -0.9963   0.0000  -0.9067
  -7.500  -0.0123   0.11399   0.11069  -0.0576  0.9622  0.0261  -0.9901   0.0000  -4.7363
  -7.000   0.0228   0.10780   0.10451  -0.0644  0.9511  0.0276  -0.9999   0.0000   3.2426
  -6.500   0.0559   0.10290   0.09962  -0.0722  0.9382  0.0290  -1.0477   0.0000   1.6040
  -6.000   0.0957   0.09745   0.09418  -0.0812  0.9268  0.0296  -1.0757   0.0000   1.1330
  -5.500   0.1201   0.09216   0.08891  -0.0844  0.9076  0.0299  -1.0864   0.0000   0.9771
  -5.000   0.1465   0.08628   0.08306  -0.0877  0.8854  0.0300  -1.0971   0.0000   0.8664
  -3.500   0.3314   0.05973   0.05605  -0.1177  0.7523  0.0378  -0.9209   0.0000   0.6108
  -3.000   0.4241   0.05314   0.04873  -0.1403  0.6533  0.0453  -0.9717   0.0000   0.5845
  -2.000   0.5335   0.04141   0.03625  -0.1587  0.5646  0.0531  -1.0467   0.0000   0.5485
  -1.500   0.9317   0.01873   0.01073  -0.2530  0.5234  0.0376  -1.2686   0.0000   0.5217
  -1.000   1.0100   0.01820   0.00982  -0.2578  0.5042  0.0492  -1.3387   0.0000   0.5045
  -0.500   1.0979   0.01782   0.00913  -0.2644  0.4865  0.0522  -1.4147   0.0000   0.4892
   0.000   1.1721   0.01770   0.00879  -0.2678  0.4733  0.0625  -1.4835   0.0000   0.4761
   0.500   1.2415   0.01821   0.00966  -0.2706  0.4610  0.3269  -1.5547   0.0000   0.4647
   1.000   1.3045   0.01901   0.01039  -0.2718  0.4510  0.3675  -1.6236   0.0000   0.4544
   1.500   1.3629   0.01935   0.01078  -0.2721  0.4444  0.3948  -1.6902   0.0000   0.4448
   2.000   1.4231   0.01977   0.01128  -0.2729  0.4371  0.4318  -1.7585   0.0000   0.4361
   2.500   1.4815   0.02029   0.01180  -0.2733  0.4292  0.4872  -1.8271   0.0000   0.4279
   3.000   1.5462   0.02119   0.01276  -0.2751  0.4206  0.5846  -1.8992   0.0000   0.4206
   3.500   1.6033   0.02194   0.01386  -0.2753  0.4152  0.7494  -1.9644   0.0000   0.4135
   4.000   1.6406   0.02218   0.01432  -0.2711  0.4113  1.0000  -2.0224   0.0000   0.4062
   4.500   1.6937   0.02301   0.01521  -0.2706  0.4063  1.0000  -2.0936   0.0000   0.3998
   5.000   1.7455   0.02385   0.01604  -0.2698  0.4008  1.0000  -2.1707   0.0000   0.3937
   5.500   1.7957   0.02463   0.01677  -0.2687  0.3946  1.0000  -2.2516   0.0000   0.3879
   6.000   1.8476   0.02567   0.01777  -0.2681  0.3891  1.0000  -2.3461   0.0000   0.3824
   6.500   1.9020   0.02765   0.01977  -0.2684  0.3813  1.0000  -2.4457   0.0000   0.3775
   7.000   1.9444   0.02836   0.02064  -0.2658  0.3775  1.0000  -2.5412   0.0000   0.3721
   7.500   1.9838   0.02915   0.02174  -0.2626  0.3715  1.0000  -2.6502   0.0000   0.3668
   8.000   2.0235   0.02992   0.02262  -0.2596  0.3647  1.0000  -2.7967   0.0000   0.3617
   8.500   2.0650   0.03073   0.02348  -0.2569  0.3585  1.0000  -2.9627   0.0000   0.3568
   9.000   2.1125   0.03227   0.02499  -0.2559  0.3498  1.0000  -3.1414   0.0000   0.3525
   9.500   2.1394   0.03343   0.02641  -0.2506  0.3439  1.0000  -3.2869   0.0000   0.3475
  10.000   2.1546   0.03432   0.02767  -0.2430  0.3372  1.0000  -3.4141   0.0000   0.3421
  10.500   2.1726   0.03493   0.02840  -0.2360  0.3287  1.0000  -3.5504   0.0000   0.3368
  11.000   2.1984   0.03567   0.02909  -0.2308  0.3189  1.0000  -3.7038   0.0000   0.3320
  11.500   2.2123   0.03742   0.03111  -0.2239  0.3112  1.0000  -3.8418   0.0000   0.3272
  12.000   2.2177   0.03919   0.03321  -0.2159  0.3036  1.0000  -3.9723   0.0000   0.3222
  12.500   2.2274   0.04092   0.03514  -0.2091  0.2949  1.0000  -4.1143   0.0000   0.3175
  13.000   2.2438   0.04283   0.03702  -0.2037  0.2842  1.0000  -4.2725   0.0000   0.3132
  13.500   2.2372   0.04610   0.04080  -0.1961  0.2761  1.0000  -4.3764   0.0000   0.3089
  14.000   2.2328   0.04954   0.04450  -0.1896  0.2644  1.0000  -4.4860   0.0000   0.3049
  14.500   2.2261   0.05397   0.04901  -0.1841  0.2516  1.0000  -4.5882   0.0000   0.3013
  15.000   2.2112   0.06012   0.05547  -0.1797  0.2367  1.0000  -4.6656   0.0000   0.2985
  15.500   2.1867   0.06814   0.06360  -0.1764  0.2208  1.0000  -4.7146   0.0000   0.2965
  16.000   2.1496   0.07881   0.07441  -0.1751  0.2034  1.0000  -4.7226   0.0000   0.2958


