XFLR5 v6.09.05 beta

 Calculated polar for: S1223

 1 1 Reynolds number fixed          Mach number fixed         

 xtrf =   1.000 (top)        1.000 (bottom)
 Mach =   0.000     Re =     0.055 e 6     Ncrit =   9.000

  alpha     CL        CD       CDp       Cm    Top Xtr Bot Xtr   Cpmin    Chinge    XCp    
 ------- -------- --------- --------- -------- ------- ------- -------- --------- ---------
 -14.000  -0.2827   0.20468   0.19732  -0.0271  1.0000  0.0652  -1.0450   0.0000   0.1334
 -13.500  -0.2814   0.20411   0.19686  -0.0281  1.0000  0.0654  -1.0806   0.0000   0.1305
 -13.000  -0.2810   0.20310   0.19596  -0.0288  1.0000  0.0656  -1.1165   0.0000   0.1286
 -12.500  -0.2351   0.17740   0.17032  -0.0268  1.0000  0.0683  -0.9672   0.0000   0.1134
 -12.000  -0.2214   0.17112   0.16412  -0.0261  1.0000  0.0706  -0.9279   0.0000   0.1091
 -11.500  -0.2108   0.16631   0.15943  -0.0256  1.0000  0.0730  -0.9072   0.0000   0.1054
 -11.000  -0.2020   0.16203   0.15526  -0.0251  1.0000  0.0757  -0.8964   0.0000   0.1025
 -10.500  -0.1947   0.15809   0.15145  -0.0246  1.0000  0.0787  -0.8930   0.0000   0.1008
 -10.000  -0.1895   0.15470   0.14819  -0.0241  1.0000  0.0818  -0.8986   0.0000   0.1008
  -9.500  -0.1893   0.15297   0.14657  -0.0237  1.0000  0.0849  -0.9239   0.0000   0.1042
  -9.000  -0.1997   0.15451   0.14830  -0.0232  1.0000  0.0866  -0.9789   0.0000   0.1157
  -8.500  -0.2163   0.15669   0.15070  -0.0221  1.0000  0.0873  -1.0386   0.0000   0.1328
  -8.000  -0.2336   0.15784   0.15209  -0.0202  1.0000  0.0877  -1.0914   0.0000   0.1504
  -7.500  -0.1975   0.14064   0.13502  -0.0178  1.0000  0.0908  -0.9855   0.0000   0.1450
  -7.000  -0.1921   0.13556   0.13012  -0.0145  1.0000  0.0943  -0.9375   0.0000   0.1603
  -6.500  -0.2004   0.13351   0.12831  -0.0111  1.0000  0.0975  -0.9287   0.0000   0.1816
  -6.000  -0.2076   0.13238   0.12743  -0.0100  0.9975  0.1011  -0.9301   0.0000   0.1899
  -5.500  -0.1559   0.13056   0.12561  -0.0279  0.9665  0.1107  -0.9566   0.0000   0.0546
  -5.000  -0.1195   0.12801   0.12314  -0.0446  0.9284  0.1137  -1.0239   0.0000  -0.1443
  -4.500  -0.0323   0.11134   0.10636  -0.0483  0.9079  0.1265  -0.8327   0.0000  -1.3219
  -4.000   0.0028   0.11200   0.10702  -0.0657  0.8624  0.1394  -0.9004   0.0000  24.5830
  -3.500   0.0479   0.09911   0.09417  -0.0642  0.8373  0.1466  -0.8101   0.0000   1.6310
  -3.000   0.1419   0.09771   0.09265  -0.0940  0.8052  0.1701  -0.8286   0.0000   0.9247
  -2.500   0.1427   0.08637   0.08142  -0.0786  0.7804  0.1765  -0.7719   0.0000   0.8120
  -1.500   0.2931   0.07054   0.06539  -0.0977  0.7436  0.2252  -0.8799   0.0000   0.5859
  -1.000   0.3551   0.06522   0.05995  -0.1081  0.7166  0.2485  -0.9169   0.0000   0.5557
  -0.500   0.6246   0.04857   0.04251  -0.1655  0.6990  0.2141  -1.0738   0.0000   0.5144
   0.500   1.0997   0.03291   0.02473  -0.2455  0.6507  0.5080  -1.3821   0.0000   0.4711
   1.000   1.1774   0.03367   0.02500  -0.2497  0.6339  0.5662  -1.4514   0.0000   0.4590
   1.500   1.2310   0.03523   0.02643  -0.2507  0.6161  0.6055  -1.4988   0.0000   0.4498
   2.000   1.3065   0.03642   0.02726  -0.2546  0.6033  0.6639  -1.5677   0.0000   0.4402
   2.500   1.3315   0.03947   0.03058  -0.2509  0.5930  0.7245  -1.5876   0.0000   0.4330
   3.000   1.3434   0.04274   0.03428  -0.2450  0.5828  0.8140  -1.6034   0.0000   0.4263
   3.500   1.4120   0.04495   0.03612  -0.2498  0.5711  1.0000  -1.6707   0.0000   0.4200
   4.000   1.4422   0.04999   0.04098  -0.2479  0.5616  1.0000  -1.7044   0.0000   0.4142
   4.500   1.0994   0.08695   0.07987  -0.2191  0.5570  0.8328  -1.2889   0.0000   0.4419
   5.000   1.0778   0.09950   0.09253  -0.2216  0.5588  1.0000  -1.2309   0.0000   0.4477
   5.500   1.0976   0.11040   0.10317  -0.2270  0.5677  1.0000  -1.2284   0.0000   0.4483
   7.500   1.0641   0.15095   0.14383  -0.2340  0.6054  1.0000  -1.1071   0.0000   0.4588
   8.000   1.0487   0.15390   0.14678  -0.2316  0.5798  1.0000  -1.0863   0.0000   0.4590


