XFLR5 v6.09.05 beta

 Calculated polar for: S1223

 1 1 Reynolds number fixed          Mach number fixed         

 xtrf =   1.000 (top)        1.000 (bottom)
 Mach =   0.000     Re =     0.245 e 6     Ncrit =   9.000

  alpha     CL        CD       CDp       Cm    Top Xtr Bot Xtr   Cpmin    Chinge    XCp    
 ------- -------- --------- --------- -------- ------- ------- -------- --------- ---------
 -11.500  -0.2403   0.16229   0.15903  -0.0209  1.0000  0.0178  -1.3409   0.0000   0.1431
 -11.000  -0.2305   0.15674   0.15354  -0.0198  1.0000  0.0182  -1.3001   0.0000   0.1442
 -10.500  -0.2228   0.15212   0.14898  -0.0187  1.0000  0.0184  -1.2643   0.0000   0.1466
  -9.500  -0.1345   0.13718   0.13399  -0.0364  0.9887  0.0195  -1.1339   0.0000  -0.0539
  -9.000  -0.0985   0.13050   0.12732  -0.0432  0.9822  0.0201  -1.0917   0.0000  -0.2327
  -8.500  -0.0641   0.12401   0.12084  -0.0495  0.9748  0.0208  -1.0575   0.0000  -0.5886
  -8.000  -0.0287   0.11755   0.11439  -0.0560  0.9673  0.0215  -1.0282   0.0000  -1.8450
  -7.500   0.0115   0.11077   0.10762  -0.0637  0.9602  0.0225  -1.0010   0.0000   6.1397
  -7.000   0.0434   0.10457   0.10144  -0.0689  0.9489  0.0235  -0.9842   0.0000   1.9240
  -6.500   0.0761   0.09842   0.09531  -0.0742  0.9370  0.0247  -0.9729   0.0000   1.2720
  -6.000   0.1179   0.09171   0.08858  -0.0820  0.9273  0.0263  -0.9679   0.0000   0.9736
  -5.500   0.1426   0.08657   0.08348  -0.0855  0.9084  0.0280  -0.9958   0.0000   0.8713
  -5.000   0.1586   0.08275   0.07969  -0.0882  0.8844  0.0292  -1.0563   0.0000   0.8228
  -4.500   0.1829   0.07783   0.07477  -0.0909  0.8467  0.0297  -1.0705   0.0000   0.7592
  -4.000   0.2742   0.06775   0.06448  -0.1106  0.8059  0.0300  -1.0600   0.0000   0.6610
  -3.500   0.3674   0.05608   0.05222  -0.1296  0.7140  0.0333  -0.9809   0.0000   0.6081
  -3.000   0.4011   0.05251   0.04813  -0.1324  0.6288  0.0359  -0.9653   0.0000   0.5839
  -2.500   0.4443   0.04794   0.04325  -0.1394  0.5828  0.0401  -0.9956   0.0000   0.5660
  -2.000   0.5856   0.03588   0.03074  -0.1768  0.5488  0.0495  -1.0674   0.0000   0.5529
  -1.000   1.0096   0.01779   0.00952  -0.2576  0.4896  0.0433  -1.3407   0.0000   0.5043
  -0.500   1.0839   0.01726   0.00885  -0.2612  0.4769  0.0477  -1.4092   0.0000   0.4893
   0.000   1.1665   0.01714   0.00835  -0.2665  0.4617  0.0542  -1.4842   0.0000   0.4760
   0.500   1.2440   0.01753   0.00914  -0.2710  0.4502  0.3103  -1.5593   0.0000   0.4646
   1.000   1.2986   0.01800   0.00968  -0.2704  0.4428  0.3543  -1.6238   0.0000   0.4542
   1.500   1.3589   0.01834   0.00999  -0.2712  0.4350  0.3804  -1.6926   0.0000   0.4446
   2.000   1.4190   0.01888   0.01046  -0.2719  0.4273  0.4145  -1.7619   0.0000   0.4359
   2.500   1.4877   0.01985   0.01142  -0.2747  0.4169  0.4717  -1.8362   0.0000   0.4280
   3.000   1.5442   0.02022   0.01203  -0.2746  0.4131  0.5581  -1.9033   0.0000   0.4204
   3.500   1.6002   0.02066   0.01280  -0.2745  0.4081  0.7022  -1.9698   0.0000   0.4132
   4.000   1.6371   0.02083   0.01323  -0.2701  0.4032  1.0000  -2.0265   0.0000   0.4059
   4.500   1.6912   0.02158   0.01399  -0.2698  0.3979  1.0000  -2.0999   0.0000   0.3995
   5.000   1.7439   0.02239   0.01471  -0.2692  0.3926  1.0000  -2.1774   0.0000   0.3934
   5.500   1.8013   0.02366   0.01586  -0.2698  0.3850  1.0000  -2.2627   0.0000   0.3879
   6.000   1.8543   0.02492   0.01721  -0.2695  0.3803  1.0000  -2.3568   0.0000   0.3826
   6.500   1.8979   0.02555   0.01796  -0.2670  0.3761  1.0000  -2.4484   0.0000   0.3770
   7.000   1.9414   0.02633   0.01886  -0.2647  0.3707  1.0000  -2.5447   0.0000   0.3717
   7.500   1.9832   0.02701   0.01975  -0.2619  0.3642  1.0000  -2.6570   0.0000   0.3664
   8.000   2.0247   0.02773   0.02048  -0.2592  0.3578  1.0000  -2.8075   0.0000   0.3614
   8.500   2.0759   0.02931   0.02205  -0.2589  0.3498  1.0000  -2.9885   0.0000   0.3570
   9.000   2.1081   0.03033   0.02330  -0.2545  0.3445  1.0000  -3.1411   0.0000   0.3520
   9.500   2.1289   0.03108   0.02427  -0.2478  0.3386  1.0000  -3.2769   0.0000   0.3467
  10.000   2.1514   0.03183   0.02526  -0.2416  0.3310  1.0000  -3.4183   0.0000   0.3415
  10.500   2.1732   0.03250   0.02593  -0.2354  0.3222  1.0000  -3.5627   0.0000   0.3364
  11.000   2.1996   0.03400   0.02755  -0.2306  0.3128  1.0000  -3.7141   0.0000   0.3318
  11.500   2.2105   0.03542   0.02929  -0.2231  0.3065  1.0000  -3.8479   0.0000   0.3268
  12.000   2.2244   0.03696   0.03105  -0.2165  0.2983  1.0000  -3.9976   0.0000   0.3221
  12.500   2.2378   0.03871   0.03288  -0.2102  0.2894  1.0000  -4.1485   0.0000   0.3175
  13.000   2.2477   0.04115   0.03554  -0.2041  0.2802  1.0000  -4.2908   0.0000   0.3132
  13.500   2.2512   0.04393   0.03871  -0.1977  0.2699  1.0000  -4.4191   0.0000   0.3090
  14.000   2.2487   0.04741   0.04225  -0.1914  0.2573  1.0000  -4.5345   0.0000   0.3050
  14.500   2.2434   0.05200   0.04713  -0.1862  0.2431  1.0000  -4.6397   0.0000   0.3015
  15.000   2.2212   0.05892   0.05406  -0.1812  0.2247  1.0000  -4.7017   0.0000   0.2987
  15.500   2.1945   0.06759   0.06292  -0.1782  0.2054  1.0000  -4.7455   0.0000   0.2969
  16.000   2.1559   0.07877   0.07427  -0.1770  0.1880  1.0000  -4.7492   0.0000   0.2963
  16.500   2.1033   0.09264   0.08822  -0.1780  0.1725  1.0000  -4.7039   0.0000   0.2973


