XFLR5 v6.09.05 beta

 Calculated polar for: S1223

 1 1 Reynolds number fixed          Mach number fixed         

 xtrf =   1.000 (top)        1.000 (bottom)
 Mach =   0.000     Re =     0.200 e 6     Ncrit =   9.000

  alpha     CL        CD       CDp       Cm    Top Xtr Bot Xtr   Cpmin    Chinge    XCp    
 ------- -------- --------- --------- -------- ------- ------- -------- --------- ---------
 -13.000  -0.2534   0.17361   0.16982  -0.0196  1.0000  0.0209  -1.0653   0.0000   0.1508
 -12.500  -0.2438   0.16916   0.16543  -0.0197  1.0000  0.0212  -1.0594   0.0000   0.1476
 -12.000  -0.2350   0.16481   0.16114  -0.0196  1.0000  0.0215  -1.0544   0.0000   0.1451
 -11.500  -0.2269   0.16058   0.15697  -0.0193  1.0000  0.0219  -1.0504   0.0000   0.1436
 -11.000  -0.2197   0.15650   0.15295  -0.0189  1.0000  0.0223  -1.0476   0.0000   0.1432
 -10.500  -0.2134   0.15252   0.14905  -0.0182  1.0000  0.0227  -1.0464   0.0000   0.1443
 -10.000  -0.2083   0.14868   0.14528  -0.0174  1.0000  0.0232  -1.0471   0.0000   0.1470
  -9.500  -0.1812   0.14297   0.13958  -0.0225  0.9966  0.0239  -1.0364   0.0000   0.1036
  -9.000  -0.1378   0.13582   0.13241  -0.0320  0.9897  0.0249  -1.0195   0.0000  -0.0114
  -8.500  -0.0989   0.12903   0.12562  -0.0400  0.9824  0.0260  -1.0099   0.0000  -0.1953
  -7.500  -0.0258   0.11689   0.11349  -0.0558  0.9632  0.0286  -1.0406   0.0000  -2.0644
  -7.000   0.0059   0.11233   0.10896  -0.0642  0.9506  0.0294  -1.0878   0.0000  11.7332
  -6.500   0.0402   0.10671   0.10335  -0.0711  0.9375  0.0297  -1.0999   0.0000   2.1024
  -6.000   0.0828   0.09999   0.09664  -0.0794  0.9269  0.0299  -1.1017   0.0000   1.2480
  -5.500   0.1078   0.09426   0.09092  -0.0827  0.9077  0.0300  -1.1125   0.0000   1.0444
  -5.000   0.1253   0.08467   0.08140  -0.0847  0.8870  0.0313  -1.1735   0.0000   0.9472
  -4.500   0.1563   0.07835   0.07511  -0.0843  0.8627  0.0330  -1.0367   0.0000   0.8038
  -4.000   0.2010   0.07180   0.06852  -0.0894  0.8285  0.0354  -0.9462   0.0000   0.7046
  -3.500   0.3059   0.06184   0.05822  -0.1114  0.7702  0.0409  -0.9064   0.0000   0.6202
  -3.000   0.4398   0.05342   0.04897  -0.1462  0.6682  0.0462  -0.9755   0.0000   0.5858
  -2.500   0.4633   0.04713   0.04236  -0.1465  0.6135  0.0504  -1.0002   0.0000   0.5685
  -2.000   0.5268   0.04263   0.03751  -0.1559  0.5752  0.0578  -1.0440   0.0000   0.5470
  -1.500   0.9302   0.01929   0.01121  -0.2527  0.5304  0.0398  -1.2668   0.0000   0.5218
  -1.000   1.0137   0.01851   0.01012  -0.2589  0.5113  0.0539  -1.3396   0.0000   0.5047
  -0.500   1.1010   0.01826   0.00942  -0.2651  0.4918  0.0551  -1.4150   0.0000   0.4893
   0.000   1.1772   0.01808   0.00904  -0.2689  0.4794  0.0729  -1.4841   0.0000   0.4761
   0.500   1.2401   0.01861   0.01011  -0.2703  0.4679  0.3389  -1.5515   0.0000   0.4647
   1.000   1.3044   0.01945   0.01073  -0.2719  0.4562  0.3760  -1.6217   0.0000   0.4544
   1.500   1.3656   0.02002   0.01126  -0.2728  0.4493  0.4022  -1.6892   0.0000   0.4449
   2.000   1.4253   0.02041   0.01179  -0.2735  0.4425  0.4411  -1.7565   0.0000   0.4362
   2.500   1.4834   0.02090   0.01233  -0.2738  0.4347  0.4971  -1.8240   0.0000   0.4281
   3.000   1.5425   0.02148   0.01305  -0.2743  0.4274  0.5956  -1.8930   0.0000   0.4205
   3.500   1.6008   0.02242   0.01422  -0.2747  0.4196  0.7765  -1.9598   0.0000   0.4134
   4.500   1.6952   0.02390   0.01594  -0.2711  0.4109  1.0000  -2.0901   0.0000   0.4000
   5.000   1.7458   0.02479   0.01687  -0.2701  0.4056  1.0000  -2.1665   0.0000   0.3939
   5.500   1.7949   0.02562   0.01770  -0.2688  0.3993  1.0000  -2.2462   0.0000   0.3880
   6.000   1.8452   0.02657   0.01864  -0.2678  0.3939  1.0000  -2.3391   0.0000   0.3825
   6.500   1.8963   0.02773   0.01974  -0.2671  0.3873  1.0000  -2.4382   0.0000   0.3772
   7.000   1.9451   0.02973   0.02185  -0.2663  0.3805  1.0000  -2.5379   0.0000   0.3723
   7.500   1.9841   0.03046   0.02294  -0.2630  0.3755  1.0000  -2.6463   0.0000   0.3670
   8.000   2.0214   0.03133   0.02398  -0.2596  0.3688  1.0000  -2.7881   0.0000   0.3619
   8.500   2.0606   0.03220   0.02496  -0.2565  0.3622  1.0000  -2.9494   0.0000   0.3569
   9.000   2.1024   0.03300   0.02576  -0.2540  0.3554  1.0000  -3.1195   0.0000   0.3522
   9.500   2.1426   0.03499   0.02785  -0.2518  0.3464  1.0000  -3.2873   0.0000   0.3478
  10.000   2.1571   0.03583   0.02911  -0.2440  0.3405  1.0000  -3.4131   0.0000   0.3424
  10.500   2.1703   0.03668   0.03016  -0.2362  0.3324  1.0000  -3.5389   0.0000   0.3371
  11.000   2.1909   0.03709   0.03060  -0.2298  0.3234  1.0000  -3.6832   0.0000   0.3320
  11.500   2.2166   0.03868   0.03225  -0.2251  0.3133  1.0000  -3.8445   0.0000   0.3275
  12.000   2.2143   0.04058   0.03454  -0.2157  0.3067  1.0000  -3.9584   0.0000   0.3223
  12.500   2.2200   0.04248   0.03670  -0.2083  0.2978  1.0000  -4.0907   0.0000   0.3176
  13.000   2.2314   0.04422   0.03851  -0.2022  0.2885  1.0000  -4.2381   0.0000   0.3131
  13.500   2.2310   0.04733   0.04196  -0.1954  0.2791  1.0000  -4.3560   0.0000   0.3088
  14.000   2.2201   0.05121   0.04620  -0.1884  0.2681  1.0000  -4.4488   0.0000   0.3048
  14.500   2.2175   0.05505   0.05004  -0.1831  0.2551  1.0000  -4.5619   0.0000   0.3012
  15.000   2.1983   0.06166   0.05706  -0.1786  0.2419  1.0000  -4.6266   0.0000   0.2985
  15.500   2.1768   0.06907   0.06443  -0.1753  0.2254  1.0000  -4.6844   0.0000   0.2964


