XFLR5 v6.09.05 beta

 Calculated polar for: S1223

 1 1 Reynolds number fixed          Mach number fixed         

 xtrf =   1.000 (top)        1.000 (bottom)
 Mach =   0.000     Re =     0.255 e 6     Ncrit =   9.000

  alpha     CL        CD       CDp       Cm    Top Xtr Bot Xtr   Cpmin    Chinge    XCp    
 ------- -------- --------- --------- -------- ------- ------- -------- --------- ---------
 -10.000  -0.1663   0.14330   0.14017  -0.0322  0.9920  0.0184  -1.2591   0.0000   0.0289
  -9.500  -0.1282   0.13619   0.13304  -0.0390  0.9869  0.0189  -1.1880   0.0000  -0.0892
  -9.000  -0.0910   0.12944   0.12629  -0.0458  0.9814  0.0194  -1.1309   0.0000  -0.3025
  -8.500  -0.0573   0.12298   0.11985  -0.0517  0.9738  0.0200  -1.0873   0.0000  -0.7266
  -8.000  -0.0232   0.11661   0.11350  -0.0577  0.9658  0.0207  -1.0509   0.0000  -2.4162
  -7.500   0.0186   0.10979   0.10667  -0.0657  0.9598  0.0216  -1.0158   0.0000   3.9950
  -7.000   0.0496   0.10367   0.10059  -0.0705  0.9482  0.0225  -0.9943   0.0000   1.7484
  -6.500   0.0808   0.09766   0.09460  -0.0753  0.9359  0.0236  -0.9783   0.0000   1.2263
  -6.000   0.1236   0.09086   0.08778  -0.0832  0.9271  0.0251  -0.9636   0.0000   0.9502
  -5.500   0.1481   0.08545   0.08241  -0.0860  0.9082  0.0265  -0.9706   0.0000   0.8518
  -5.000   0.1663   0.08079   0.07778  -0.0879  0.8846  0.0281  -1.0073   0.0000   0.7948
  -4.500   0.1865   0.07665   0.07363  -0.0911  0.8452  0.0294  -1.0604   0.0000   0.7509
  -4.000   0.2868   0.06661   0.06333  -0.1133  0.7999  0.0300  -1.0453   0.0000   0.6524
  -3.000   0.4022   0.05180   0.04741  -0.1338  0.6218  0.0343  -0.9641   0.0000   0.5865
  -2.500   0.4419   0.04770   0.04302  -0.1389  0.5773  0.0376  -0.9945   0.0000   0.5667
  -2.000   0.6126   0.03341   0.02819  -0.1855  0.5430  0.0493  -1.0795   0.0000   0.5536
  -1.000   1.0099   0.01743   0.00925  -0.2576  0.4873  0.0416  -1.3415   0.0000   0.5043
  -0.500   1.0788   0.01721   0.00888  -0.2600  0.4737  0.0467  -1.4071   0.0000   0.4894
   0.000   1.1671   0.01706   0.00828  -0.2666  0.4571  0.0520  -1.4854   0.0000   0.4760
   0.500   1.2427   0.01722   0.00893  -0.2707  0.4480  0.3062  -1.5594   0.0000   0.4646
   1.000   1.2974   0.01771   0.00946  -0.2702  0.4401  0.3509  -1.6243   0.0000   0.4541
   1.500   1.3577   0.01809   0.00977  -0.2709  0.4322  0.3760  -1.6933   0.0000   0.4446
   2.000   1.4191   0.01873   0.01031  -0.2719  0.4237  0.4083  -1.7633   0.0000   0.4358
   2.500   1.4848   0.01946   0.01111  -0.2740  0.4155  0.4650  -1.8359   0.0000   0.4279
   3.000   1.5417   0.01987   0.01173  -0.2740  0.4111  0.5487  -1.9034   0.0000   0.4203
   3.500   1.5989   0.02032   0.01250  -0.2742  0.4057  0.6892  -1.9712   0.0000   0.4132
   4.000   1.6360   0.02046   0.01293  -0.2698  0.4007  1.0000  -2.0277   0.0000   0.4058
   4.500   1.6901   0.02120   0.01365  -0.2695  0.3955  1.0000  -2.1014   0.0000   0.3994
   5.000   1.7442   0.02208   0.01443  -0.2692  0.3899  1.0000  -2.1796   0.0000   0.3934
   5.500   1.8053   0.02371   0.01599  -0.2707  0.3816  1.0000  -2.2666   0.0000   0.3881
   6.000   1.8524   0.02435   0.01674  -0.2690  0.3789  1.0000  -2.3567   0.0000   0.3824
   6.500   1.8964   0.02501   0.01750  -0.2666  0.3741  1.0000  -2.4488   0.0000   0.3769
   7.000   1.9405   0.02577   0.01836  -0.2643  0.3686  1.0000  -2.5457   0.0000   0.3715
   7.500   1.9825   0.02643   0.01919  -0.2616  0.3621  1.0000  -2.6584   0.0000   0.3663
   8.000   2.0244   0.02723   0.01999  -0.2590  0.3557  1.0000  -2.8092   0.0000   0.3613
   8.500   2.0780   0.02916   0.02197  -0.2594  0.3473  1.0000  -2.9931   0.0000   0.3571
   9.000   2.1035   0.02967   0.02272  -0.2534  0.3431  1.0000  -3.1354   0.0000   0.3518
   9.500   2.1264   0.03043   0.02367  -0.2471  0.3368  1.0000  -3.2749   0.0000   0.3465
  10.000   2.1500   0.03115   0.02459  -0.2411  0.3292  1.0000  -3.4189   0.0000   0.3413
  10.500   2.1751   0.03201   0.02541  -0.2356  0.3196  1.0000  -3.5687   0.0000   0.3364
  11.000   2.1972   0.03345   0.02707  -0.2300  0.3117  1.0000  -3.7119   0.0000   0.3317
  11.500   2.2110   0.03485   0.02876  -0.2230  0.3050  1.0000  -3.8518   0.0000   0.3267
  12.000   2.2262   0.03636   0.03047  -0.2166  0.2967  1.0000  -4.0045   0.0000   0.3220
  12.500   2.2404   0.03820   0.03236  -0.2106  0.2874  1.0000  -4.1572   0.0000   0.3175
  13.000   2.2500   0.04063   0.03507  -0.2044  0.2787  1.0000  -4.2987   0.0000   0.3132
  13.500   2.2556   0.04331   0.03810  -0.1983  0.2679  1.0000  -4.4323   0.0000   0.3090
  14.000   2.2517   0.04700   0.04180  -0.1918  0.2546  1.0000  -4.5446   0.0000   0.3050
  14.500   2.2469   0.05157   0.04667  -0.1867  0.2390  1.0000  -4.6514   0.0000   0.3016
  15.000   2.2261   0.05847   0.05365  -0.1818  0.2201  1.0000  -4.7167   0.0000   0.2988
  15.500   2.1907   0.06821   0.06345  -0.1786  0.2000  1.0000  -4.7384   0.0000   0.2972
  16.000   2.1539   0.07930   0.07473  -0.1775  0.1823  1.0000  -4.7466   0.0000   0.2966
  16.500   2.1060   0.09265   0.08825  -0.1786  0.1678  1.0000  -4.7137   0.0000   0.2975


