XFLR5 v6.09.05 beta

 Calculated polar for: S1223

 1 1 Reynolds number fixed          Mach number fixed         

 xtrf =   1.000 (top)        1.000 (bottom)
 Mach =   0.000     Re =     0.240 e 6     Ncrit =   9.000

  alpha     CL        CD       CDp       Cm    Top Xtr Bot Xtr   Cpmin    Chinge    XCp    
 ------- -------- --------- --------- -------- ------- ------- -------- --------- ---------
 -12.000  -0.2462   0.16615   0.16280  -0.0210  1.0000  0.0179  -1.3196   0.0000   0.1440
 -11.500  -0.2362   0.16078   0.15748  -0.0202  1.0000  0.0182  -1.2811   0.0000   0.1439
 -11.000  -0.2278   0.15613   0.15289  -0.0193  1.0000  0.0185  -1.2471   0.0000   0.1448
 -10.500  -0.2207   0.15188   0.14871  -0.0184  1.0000  0.0188  -1.2191   0.0000   0.1471
 -10.000  -0.1786   0.14468   0.14150  -0.0269  0.9950  0.0193  -1.1606   0.0000   0.0746
  -9.500  -0.1387   0.13773   0.13452  -0.0349  0.9892  0.0199  -1.1132   0.0000  -0.0336
  -9.000  -0.1025   0.13106   0.12785  -0.0419  0.9827  0.0205  -1.0761   0.0000  -0.2015
  -8.500  -0.0676   0.12453   0.12134  -0.0484  0.9754  0.0212  -1.0456   0.0000  -0.5294
  -8.000  -0.0313   0.11801   0.11482  -0.0553  0.9682  0.0220  -1.0191   0.0000  -1.6497
  -7.500   0.0078   0.11128   0.10810  -0.0627  0.9605  0.0230  -0.9955   0.0000   8.8271
  -7.000   0.0402   0.10503   0.10188  -0.0681  0.9492  0.0241  -0.9810   0.0000   2.0380
  -6.500   0.0738   0.09882   0.09568  -0.0737  0.9376  0.0254  -0.9725   0.0000   1.2976
  -6.000   0.1150   0.09221   0.08906  -0.0815  0.9274  0.0271  -0.9755   0.0000   0.9877
  -5.500   0.1387   0.08756   0.08445  -0.0857  0.9081  0.0287  -1.0223   0.0000   0.8895
  -5.000   0.1570   0.08352   0.08044  -0.0883  0.8845  0.0295  -1.0645   0.0000   0.8289
  -4.500   0.1810   0.07831   0.07523  -0.0907  0.8476  0.0298  -1.0762   0.0000   0.7640
  -4.000   0.2656   0.06849   0.06522  -0.1087  0.8077  0.0300  -1.0685   0.0000   0.6670
  -3.500   0.3628   0.05669   0.05287  -0.1276  0.7201  0.0339  -0.9501   0.0000   0.6072
  -3.000   0.4012   0.05277   0.04838  -0.1321  0.6325  0.0369  -0.9659   0.0000   0.5830
  -2.500   0.4482   0.04788   0.04317  -0.1406  0.5856  0.0417  -0.9968   0.0000   0.5661
  -2.000   0.5738   0.03698   0.03186  -0.1729  0.5517  0.0498  -1.0624   0.0000   0.5524
  -1.000   1.0085   0.01797   0.00967  -0.2573  0.4912  0.0441  -1.3398   0.0000   0.5044
  -0.500   1.0864   0.01731   0.00886  -0.2617  0.4785  0.0483  -1.4103   0.0000   0.4893
   0.000   1.1671   0.01720   0.00841  -0.2666  0.4637  0.0555  -1.4840   0.0000   0.4760
   0.500   1.2446   0.01770   0.00926  -0.2712  0.4513  0.3126  -1.5592   0.0000   0.4646
   1.000   1.2991   0.01816   0.00979  -0.2706  0.4442  0.3559  -1.6235   0.0000   0.4542
   1.500   1.3595   0.01849   0.01011  -0.2713  0.4365  0.3827  -1.6922   0.0000   0.4447
   2.000   1.4195   0.01898   0.01057  -0.2720  0.4289  0.4174  -1.7613   0.0000   0.4359
   2.500   1.4870   0.01993   0.01147  -0.2745  0.4184  0.4742  -1.8351   0.0000   0.4280
   3.000   1.5454   0.02042   0.01219  -0.2749  0.4141  0.5628  -1.9031   0.0000   0.4205
   3.500   1.6007   0.02085   0.01296  -0.2746  0.4094  0.7093  -1.9690   0.0000   0.4133
   4.000   1.6376   0.02103   0.01340  -0.2703  0.4045  1.0000  -2.0258   0.0000   0.4059
   4.500   1.6917   0.02179   0.01417  -0.2699  0.3992  1.0000  -2.0990   0.0000   0.3995
   5.000   1.7443   0.02259   0.01489  -0.2693  0.3939  1.0000  -2.1765   0.0000   0.3935
   5.500   1.7986   0.02364   0.01584  -0.2692  0.3870  1.0000  -2.2599   0.0000   0.3878
   6.000   1.8551   0.02524   0.01748  -0.2697  0.3810  1.0000  -2.3566   0.0000   0.3826
   6.500   1.8986   0.02584   0.01821  -0.2673  0.3770  1.0000  -2.4482   0.0000   0.3771
   7.000   1.9419   0.02663   0.01912  -0.2648  0.3718  1.0000  -2.5442   0.0000   0.3717
   7.500   1.9834   0.02733   0.02005  -0.2621  0.3653  1.0000  -2.6562   0.0000   0.3665
   8.000   2.0249   0.02803   0.02077  -0.2593  0.3589  1.0000  -2.8065   0.0000   0.3614
   8.500   2.0719   0.02927   0.02201  -0.2580  0.3519  1.0000  -2.9812   0.0000   0.3568
   9.000   2.1100   0.03069   0.02361  -0.2550  0.3452  1.0000  -3.1431   0.0000   0.3522
   9.500   2.1303   0.03142   0.02458  -0.2482  0.3394  1.0000  -3.2781   0.0000   0.3468
  10.000   2.1519   0.03219   0.02562  -0.2418  0.3320  1.0000  -3.4178   0.0000   0.3416
  10.500   2.1729   0.03281   0.02625  -0.2354  0.3233  1.0000  -3.5605   0.0000   0.3365
  11.000   2.2012   0.03430   0.02781  -0.2310  0.3133  1.0000  -3.7158   0.0000   0.3319
  11.500   2.2104   0.03572   0.02956  -0.2231  0.3073  1.0000  -3.8463   0.0000   0.3269
  12.000   2.2234   0.03729   0.03137  -0.2164  0.2991  1.0000  -3.9938   0.0000   0.3221
  12.500   2.2364   0.03900   0.03318  -0.2101  0.2903  1.0000  -4.1438   0.0000   0.3175
  13.000   2.2468   0.04142   0.03577  -0.2040  0.2809  1.0000  -4.2873   0.0000   0.3132
  13.500   2.2489   0.04426   0.03904  -0.1975  0.2709  1.0000  -4.4122   0.0000   0.3089
  14.000   2.2469   0.04766   0.04252  -0.1912  0.2585  1.0000  -4.5288   0.0000   0.3050
  14.500   2.2411   0.05228   0.04741  -0.1859  0.2449  1.0000  -4.6323   0.0000   0.3015
  15.000   2.2200   0.05903   0.05418  -0.1809  0.2269  1.0000  -4.6972   0.0000   0.2987
  15.500   2.1954   0.06742   0.06280  -0.1779  0.2081  1.0000  -4.7461   0.0000   0.2968
  16.000   2.1556   0.07867   0.07420  -0.1767  0.1908  1.0000  -4.7470   0.0000   0.2962
  16.500   2.1041   0.09237   0.08798  -0.1777  0.1751  1.0000  -4.7048   0.0000   0.2972


