XFLR5 v6.09.05 beta

 Calculated polar for: S1223

 1 1 Reynolds number fixed          Mach number fixed         

 xtrf =   1.000 (top)        1.000 (bottom)
 Mach =   0.000     Re =     0.150 e 6     Ncrit =   9.000

  alpha     CL        CD       CDp       Cm    Top Xtr Bot Xtr   Cpmin    Chinge    XCp    
 ------- -------- --------- --------- -------- ------- ------- -------- --------- ---------
 -15.000  -0.2917   0.19534   0.19078  -0.0195  1.0000  0.0286  -1.0431   0.0000   0.1610
 -14.500  -0.2807   0.19111   0.18657  -0.0204  1.0000  0.0288  -1.0513   0.0000   0.1550
 -14.000  -0.2703   0.18705   0.18256  -0.0213  1.0000  0.0290  -1.0613   0.0000   0.1492
 -13.500  -0.2608   0.18315   0.17871  -0.0220  1.0000  0.0292  -1.0731   0.0000   0.1438
 -13.000  -0.2522   0.17940   0.17501  -0.0225  1.0000  0.0293  -1.0866   0.0000   0.1390
 -12.500  -0.2446   0.17577   0.17145  -0.0229  1.0000  0.0294  -1.1016   0.0000   0.1349
 -12.000  -0.2381   0.17229   0.16804  -0.0231  1.0000  0.0295  -1.1182   0.0000   0.1319
 -11.500  -0.2326   0.16887   0.16469  -0.0232  1.0000  0.0296  -1.1363   0.0000   0.1301
 -11.000  -0.2284   0.16553   0.16143  -0.0230  1.0000  0.0297  -1.1565   0.0000   0.1298
 -10.500  -0.2252   0.16222   0.15820  -0.0225  1.0000  0.0298  -1.1774   0.0000   0.1312
 -10.000  -0.2221   0.15872   0.15480  -0.0218  1.0000  0.0299  -1.1921   0.0000   0.1340
  -9.500  -0.2200   0.15527   0.15144  -0.0207  1.0000  0.0299  -1.2061   0.0000   0.1387
  -9.000  -0.2195   0.15198   0.14822  -0.0194  1.0000  0.0300  -1.2213   0.0000   0.1454
  -8.500  -0.1781   0.14521   0.14145  -0.0290  0.9926  0.0300  -1.2190   0.0000   0.0671
  -8.000  -0.1316   0.13090   0.12717  -0.0359  0.9848  0.0313  -1.1875   0.0000  -0.0505
  -7.500  -0.0838   0.12223   0.11850  -0.0422  0.9752  0.0328  -1.0623   0.0000  -0.2960
  -7.000  -0.0414   0.11526   0.11155  -0.0494  0.9636  0.0344  -0.9942   0.0000  -1.0248
  -6.000   0.0380   0.10209   0.09842  -0.0634  0.9352  0.0387  -0.9252   0.0000   2.0005
  -5.500   0.0730   0.09593   0.09226  -0.0694  0.9168  0.0415  -0.9186   0.0000   1.2402
  -5.000   0.0969   0.09156   0.08793  -0.0747  0.8926  0.0444  -0.9651   0.0000   1.0471
  -4.500   0.1345   0.08675   0.08314  -0.0845  0.8649  0.0459  -1.0288   0.0000   0.8950
  -4.000   0.1863   0.07927   0.07564  -0.0946  0.8362  0.0463  -1.0398   0.0000   0.7678
  -3.500   0.2269   0.06854   0.06488  -0.0946  0.8054  0.0507  -0.9072   0.0000   0.6741
  -3.000   0.3420   0.05902   0.05493  -0.1176  0.7426  0.0610  -0.9296   0.0000   0.5981
  -2.500   0.4553   0.04962   0.04488  -0.1445  0.6670  0.0699  -0.9933   0.0000   0.5698
  -1.500   0.9395   0.02075   0.01233  -0.2552  0.5656  0.0507  -1.2671   0.0000   0.5219
  -1.000   1.0120   0.02050   0.01182  -0.2588  0.5433  0.0645  -1.3317   0.0000   0.5050
  -0.500   1.1014   0.01993   0.01076  -0.2655  0.5238  0.0655  -1.4062   0.0000   0.4896
   0.000   1.1874   0.01966   0.01085  -0.2716  0.5076  0.2986  -1.4802   0.0000   0.4765
   0.500   1.2400   0.02099   0.01213  -0.2704  0.4936  0.3828  -1.5420   0.0000   0.4650
   1.000   1.3033   0.02159   0.01260  -0.2718  0.4841  0.4090  -1.6089   0.0000   0.4547
   1.500   1.3633   0.02206   0.01309  -0.2726  0.4751  0.4397  -1.6743   0.0000   0.4452
   2.000   1.4249   0.02264   0.01369  -0.2737  0.4666  0.4813  -1.7418   0.0000   0.4365
   2.500   1.4882   0.02362   0.01459  -0.2752  0.4576  0.5486  -1.8113   0.0000   0.4285
   3.000   1.5448   0.02457   0.01582  -0.2753  0.4501  0.6592  -1.8737   0.0000   0.4210
   3.500   1.5764   0.02472   0.01644  -0.2698  0.4449  1.0000  -1.9217   0.0000   0.4131
   4.000   1.6320   0.02583   0.01746  -0.2700  0.4384  1.0000  -1.9920   0.0000   0.4065
   4.500   1.6852   0.02696   0.01862  -0.2696  0.4322  1.0000  -2.0635   0.0000   0.4002
   5.000   1.7386   0.02815   0.01973  -0.2693  0.4263  1.0000  -2.1425   0.0000   0.3942
   5.500   1.7920   0.03054   0.02204  -0.2695  0.4177  1.0000  -2.2248   0.0000   0.3888
   6.000   1.8355   0.03180   0.02349  -0.2673  0.4137  1.0000  -2.3088   0.0000   0.3831
   6.500   1.8766   0.03306   0.02493  -0.2646  0.4077  1.0000  -2.3939   0.0000   0.3776
   7.000   1.9168   0.03435   0.02636  -0.2618  0.4006  1.0000  -2.4850   0.0000   0.3723
   7.500   1.9601   0.03553   0.02780  -0.2596  0.3938  1.0000  -2.5962   0.0000   0.3672
   8.000   2.0096   0.03680   0.02902  -0.2587  0.3864  1.0000  -2.7478   0.0000   0.3624
   8.500   2.0409   0.03943   0.03190  -0.2549  0.3791  1.0000  -2.8906   0.0000   0.3576
   9.000   2.0648   0.04097   0.03377  -0.2493  0.3725  1.0000  -3.0241   0.0000   0.3525
   9.500   2.0881   0.04235   0.03539  -0.2437  0.3644  1.0000  -3.1603   0.0000   0.3474
  10.000   2.1293   0.04265   0.03567  -0.2409  0.3560  1.0000  -3.3352   0.0000   0.3427
  10.500   2.1637   0.04492   0.03815  -0.2379  0.3465  1.0000  -3.4964   0.0000   0.3384
  11.000   2.1475   0.04687   0.04053  -0.2256  0.3398  1.0000  -3.5640   0.0000   0.3326
  11.500   2.1446   0.04849   0.04242  -0.2162  0.3304  1.0000  -3.6594   0.0000   0.3272
  12.000   2.1865   0.04763   0.04145  -0.2133  0.3201  1.0000  -3.8662   0.0000   0.3227
  12.500   2.1828   0.05061   0.04471  -0.2051  0.3110  1.0000  -3.9743   0.0000   0.3179
  13.000   2.1513   0.05495   0.04951  -0.1943  0.3019  1.0000  -4.0185   0.0000   0.3131
  13.500   2.1585   0.05680   0.05150  -0.1886  0.2920  1.0000  -4.1536   0.0000   0.3089


