XFLR5 v6.09.05 beta

 Calculated polar for: S1223

 1 1 Reynolds number fixed          Mach number fixed         

 xtrf =   1.000 (top)        1.000 (bottom)
 Mach =   0.000     Re =     0.270 e 6     Ncrit =   9.000

  alpha     CL        CD       CDp       Cm    Top Xtr Bot Xtr   Cpmin    Chinge    XCp    
 ------- -------- --------- --------- -------- ------- ------- -------- --------- ---------
 -15.000  -0.3047   0.20022   0.19682  -0.0188  1.0000  0.0171  -1.2107   0.0000   0.1674
 -14.500  -0.2940   0.19533   0.19197  -0.0195  1.0000  0.0171  -1.2131   0.0000   0.1629
 -14.000  -0.2836   0.19050   0.18716  -0.0200  1.0000  0.0171  -1.2162   0.0000   0.1586
 -13.500  -0.2738   0.18576   0.18246  -0.0204  1.0000  0.0171  -1.2202   0.0000   0.1547
 -13.000  -0.2645   0.18110   0.17784  -0.0207  1.0000  0.0171  -1.2247   0.0000   0.1513
 -12.500  -0.2558   0.17654   0.17332  -0.0208  1.0000  0.0171  -1.2301   0.0000   0.1486
 -12.000  -0.2479   0.17210   0.16894  -0.0207  1.0000  0.0171  -1.2371   0.0000   0.1467
 -10.000  -0.1532   0.14693   0.14386  -0.0384  0.9892  0.0173  -1.2814   0.0000  -0.0307
  -9.500  -0.1218   0.13573   0.13264  -0.0435  0.9839  0.0181  -1.3060   0.0000  -0.1446
  -9.000  -0.0848   0.12829   0.12520  -0.0490  0.9786  0.0186  -1.2211   0.0000  -0.3815
  -8.500  -0.0479   0.12154   0.11846  -0.0552  0.9726  0.0191  -1.1512   0.0000  -0.9934
  -8.000  -0.0150   0.11521   0.11216  -0.0604  0.9642  0.0197  -1.0990   0.0000  -4.0554
  -7.500   0.0285   0.10834   0.10529  -0.0686  0.9593  0.0205  -1.0484   0.0000   2.8019
  -6.000   0.1316   0.08971   0.08670  -0.0851  0.9267  0.0235  -0.9703   0.0000   0.9225
  -5.500   0.1552   0.08434   0.08136  -0.0875  0.9076  0.0247  -0.9658   0.0000   0.8334
  -5.000   0.1686   0.07976   0.07682  -0.0872  0.8804  0.0259  -0.9761   0.0000   0.7832
  -4.500   0.1928   0.07457   0.07160  -0.0904  0.8441  0.0277  -1.0044   0.0000   0.7309
  -4.000   0.3062   0.06485   0.06154  -0.1176  0.7878  0.0298  -1.0251   0.0000   0.6411
  -3.500   0.3958   0.05676   0.05270  -0.1372  0.6760  0.0301  -1.0248   0.0000   0.6017
  -3.000   0.4089   0.05015   0.04576  -0.1382  0.6122  0.0326  -1.0602   0.0000   0.5918
  -2.500   0.4441   0.04677   0.04209  -0.1406  0.5693  0.0351  -0.9940   0.0000   0.5690
  -2.000   0.5311   0.04009   0.03513  -0.1587  0.5397  0.0421  -1.0463   0.0000   0.5498
  -0.500   1.0771   0.01696   0.00870  -0.2596  0.4689  0.0458  -1.4075   0.0000   0.4894
   0.000   1.1664   0.01687   0.00819  -0.2665  0.4524  0.0488  -1.4860   0.0000   0.4760
   0.500   1.2406   0.01682   0.00864  -0.2702  0.4445  0.2999  -1.5594   0.0000   0.4646
   1.000   1.2952   0.01732   0.00917  -0.2697  0.4362  0.3456  -1.6245   0.0000   0.4541
   1.500   1.3555   0.01780   0.00949  -0.2704  0.4279  0.3689  -1.6938   0.0000   0.4445
   2.000   1.4253   0.01871   0.01031  -0.2733  0.4172  0.4036  -1.7685   0.0000   0.4360
   2.500   1.4807   0.01897   0.01072  -0.2730  0.4131  0.4545  -1.8354   0.0000   0.4278
   3.000   1.5389   0.01939   0.01136  -0.2734  0.4079  0.5383  -1.9041   0.0000   0.4202
   3.500   1.5968   0.01985   0.01210  -0.2736  0.4023  0.6722  -1.9729   0.0000   0.4130
   4.000   1.6341   0.01996   0.01252  -0.2694  0.3973  1.0000  -2.0292   0.0000   0.4056
   4.500   1.6888   0.02074   0.01325  -0.2692  0.3920  1.0000  -2.1036   0.0000   0.3993
   5.000   1.7493   0.02196   0.01434  -0.2703  0.3847  1.0000  -2.1854   0.0000   0.3936
   5.500   1.8023   0.02294   0.01536  -0.2699  0.3800  1.0000  -2.2664   0.0000   0.3879
   6.000   1.8496   0.02362   0.01613  -0.2682  0.3765  1.0000  -2.3563   0.0000   0.3822
   6.500   1.8944   0.02429   0.01689  -0.2660  0.3712  1.0000  -2.4493   0.0000   0.3767
   7.000   1.9389   0.02502   0.01767  -0.2638  0.3656  1.0000  -2.5467   0.0000   0.3714
   7.500   1.9804   0.02567   0.01848  -0.2610  0.3593  1.0000  -2.6588   0.0000   0.3661
   8.000   2.0285   0.02682   0.01960  -0.2598  0.3517  1.0000  -2.8182   0.0000   0.3614
   8.500   2.0736   0.02820   0.02113  -0.2582  0.3459  1.0000  -2.9887   0.0000   0.3568
   9.000   2.0975   0.02881   0.02195  -0.2519  0.3409  1.0000  -3.1280   0.0000   0.3514
   9.500   2.1235   0.02957   0.02287  -0.2463  0.3343  1.0000  -3.2732   0.0000   0.3462
  10.000   2.1476   0.03027   0.02373  -0.2404  0.3266  1.0000  -3.4185   0.0000   0.3411
  10.500   2.1825   0.03165   0.02505  -0.2371  0.3147  1.0000  -3.5844   0.0000   0.3367
  11.000   2.1952   0.03271   0.02642  -0.2294  0.3100  1.0000  -3.7113   0.0000   0.3315
  11.500   2.2122   0.03407   0.02803  -0.2230  0.3027  1.0000  -3.8582   0.0000   0.3267
  12.000   2.2288   0.03557   0.02969  -0.2169  0.2945  1.0000  -4.0143   0.0000   0.3220
  12.500   2.2459   0.03761   0.03174  -0.2114  0.2837  1.0000  -4.1726   0.0000   0.3176
  13.000   2.2544   0.03988   0.03444  -0.2050  0.2765  1.0000  -4.3123   0.0000   0.3132
  13.500   2.2613   0.04251   0.03729  -0.1990  0.2649  1.0000  -4.4497   0.0000   0.3091
  14.000   2.2582   0.04630   0.04117  -0.1927  0.2512  1.0000  -4.5635   0.0000   0.3051
  14.500   2.2481   0.05133   0.04633  -0.1871  0.2321  1.0000  -4.6590   0.0000   0.3017
  15.000   2.2281   0.05835   0.05346  -0.1825  0.2110  1.0000  -4.7260   0.0000   0.2990
  15.500   2.1935   0.06813   0.06333  -0.1793  0.1913  1.0000  -4.7493   0.0000   0.2974
  16.000   2.1457   0.08081   0.07612  -0.1784  0.1745  1.0000  -4.7276   0.0000   0.2973
  16.500   2.1041   0.09340   0.08893  -0.1795  0.1599  1.0000  -4.7121   0.0000   0.2980


