XFLR5 v6.09.05 beta

 Calculated polar for: S1223

 1 1 Reynolds number fixed          Mach number fixed         

 xtrf =   1.000 (top)        1.000 (bottom)
 Mach =   0.000     Re =     0.140 e 6     Ncrit =   9.000

  alpha     CL        CD       CDp       Cm    Top Xtr Bot Xtr   Cpmin    Chinge    XCp    
 ------- -------- --------- --------- -------- ------- ------- -------- --------- ---------
 -15.000  -0.2954   0.20029   0.19557  -0.0211  1.0000  0.0295  -1.0984   0.0000   0.1570
 -14.500  -0.2854   0.19612   0.19145  -0.0220  1.0000  0.0296  -1.1075   0.0000   0.1513
 -14.000  -0.2760   0.19201   0.18737  -0.0228  1.0000  0.0296  -1.1178   0.0000   0.1460
 -13.500  -0.2674   0.18801   0.18343  -0.0234  1.0000  0.0297  -1.1297   0.0000   0.1412
 -13.000  -0.2596   0.18412   0.17959  -0.0239  1.0000  0.0297  -1.1431   0.0000   0.1370
 -12.500  -0.2526   0.18035   0.17588  -0.0242  1.0000  0.0298  -1.1583   0.0000   0.1336
 -12.000  -0.2465   0.17660   0.17220  -0.0244  1.0000  0.0299  -1.1742   0.0000   0.1311
 -11.500  -0.2401   0.17261   0.16829  -0.0242  1.0000  0.0299  -1.1849   0.0000   0.1295
 -11.000  -0.2343   0.16861   0.16437  -0.0239  1.0000  0.0299  -1.1956   0.0000   0.1291
 -10.500  -0.2295   0.16469   0.16053  -0.0233  1.0000  0.0300  -1.2073   0.0000   0.1301
 -10.000  -0.2259   0.16088   0.15682  -0.0225  1.0000  0.0300  -1.2200   0.0000   0.1328
  -8.500  -0.1955   0.13905   0.13526  -0.0184  0.9991  0.0320  -1.1373   0.0000   0.1381
  -8.000  -0.1411   0.13099   0.12718  -0.0287  0.9899  0.0336  -1.0452   0.0000   0.0218
  -7.500  -0.0941   0.12390   0.12008  -0.0380  0.9800  0.0353  -0.9910   0.0000  -0.1908
  -7.000  -0.0533   0.11712   0.11332  -0.0458  0.9670  0.0373  -0.9572   0.0000  -0.6726
  -6.500  -0.0126   0.11043   0.10665  -0.0537  0.9530  0.0397  -0.9360   0.0000  -4.2827
  -6.000   0.0264   0.10413   0.10037  -0.0615  0.9372  0.0425  -0.9352   0.0000   2.6925
  -5.000   0.0842   0.09592   0.09220  -0.0770  0.8896  0.0459  -1.0492   0.0000   1.1945
  -4.500   0.1304   0.08872   0.08501  -0.0860  0.8646  0.0463  -1.0592   0.0000   0.9263
  -4.000   0.1539   0.07826   0.07462  -0.0826  0.8410  0.0496  -0.9622   0.0000   0.7992
  -3.500   0.2128   0.07067   0.06696  -0.0894  0.8083  0.0547  -0.8515   0.0000   0.6777
  -3.000   0.3614   0.06099   0.05682  -0.1293  0.7482  0.0655  -0.9272   0.0000   0.6115
  -2.500   0.4309   0.05189   0.04722  -0.1355  0.6812  0.0734  -0.9836   0.0000   0.5671
  -2.000   0.5501   0.04375   0.03847  -0.1637  0.6277  0.0924  -1.0503   0.0000   0.5488
  -1.500   0.6644   0.03752   0.03176  -0.1851  0.5906  0.1187  -1.1268   0.0000   0.5287
  -1.000   1.0142   0.02092   0.01213  -0.2594  0.5520  0.0663  -1.3308   0.0000   0.5051
  -0.500   1.1052   0.02012   0.01085  -0.2664  0.5314  0.0698  -1.4064   0.0000   0.4896
   0.000   1.1874   0.02030   0.01139  -0.2717  0.5155  0.3113  -1.4771   0.0000   0.4766
   0.500   1.2345   0.02135   0.01256  -0.2692  0.5021  0.3906  -1.5353   0.0000   0.4650
   1.000   1.3063   0.02231   0.01318  -0.2726  0.4896  0.4196  -1.6082   0.0000   0.4548
   1.500   1.3641   0.02281   0.01370  -0.2729  0.4819  0.4488  -1.6711   0.0000   0.4453
   2.000   1.4245   0.02339   0.01438  -0.2737  0.4733  0.4918  -1.7364   0.0000   0.4367
   2.500   1.4838   0.02405   0.01510  -0.2744  0.4648  0.5596  -1.8027   0.0000   0.4286
   3.000   1.5435   0.02525   0.01636  -0.2751  0.4553  0.6760  -1.8688   0.0000   0.4210
   3.500   1.5773   0.02573   0.01726  -0.2703  0.4503  1.0000  -1.9179   0.0000   0.4133
   4.000   1.6308   0.02687   0.01837  -0.2701  0.4445  1.0000  -1.9855   0.0000   0.4067
   4.500   1.6817   0.02812   0.01973  -0.2693  0.4383  1.0000  -2.0544   0.0000   0.4004
   5.000   1.7321   0.02937   0.02097  -0.2684  0.4320  1.0000  -2.1293   0.0000   0.3943
   5.500   1.7840   0.03055   0.02205  -0.2677  0.4250  1.0000  -2.2136   0.0000   0.3886
   6.000   1.8337   0.03355   0.02505  -0.2674  0.4173  1.0000  -2.3017   0.0000   0.3834
   6.500   1.8729   0.03468   0.02641  -0.2644  0.4128  1.0000  -2.3843   0.0000   0.3778
   7.000   1.9099   0.03610   0.02805  -0.2610  0.4060  1.0000  -2.4707   0.0000   0.3724
   7.500   1.9467   0.03764   0.02996  -0.2578  0.3989  1.0000  -2.5715   0.0000   0.3672
   8.000   1.9905   0.03868   0.03103  -0.2556  0.3915  1.0000  -2.7078   0.0000   0.3622
   8.500   2.0379   0.04132   0.03364  -0.2549  0.3827  1.0000  -2.8794   0.0000   0.3578
   9.000   2.0564   0.04318   0.03589  -0.2485  0.3769  1.0000  -3.0022   0.0000   0.3527
   9.500   2.0712   0.04510   0.03815  -0.2416  0.3690  1.0000  -3.1208   0.0000   0.3475
  10.000   2.0940   0.04616   0.03936  -0.2359  0.3604  1.0000  -3.2592   0.0000   0.3424
  10.500   2.1519   0.04624   0.03944  -0.2361  0.3512  1.0000  -3.4680   0.0000   0.3383
  11.000   2.1395   0.04949   0.04309  -0.2253  0.3436  1.0000  -3.5397   0.0000   0.3328
  11.500   2.1095   0.05277   0.04680  -0.2122  0.3352  1.0000  -3.5784   0.0000   0.3271
  12.000   2.1300   0.05310   0.04723  -0.2066  0.3252  1.0000  -3.7276   0.0000   0.3223
  12.500   2.1810   0.05274   0.04673  -0.2055  0.3137  1.0000  -3.9608   0.0000   0.3183
  13.000   2.1187   0.05916   0.05376  -0.1916  0.3061  1.0000  -3.9323   0.0000   0.3134


