XFLR5 v6.09.05 beta

 Calculated polar for: S1223

 1 1 Reynolds number fixed          Mach number fixed         

 xtrf =   1.000 (top)        1.000 (bottom)
 Mach =   0.000     Re =     0.310 e 6     Ncrit =   9.000

  alpha     CL        CD       CDp       Cm    Top Xtr Bot Xtr   Cpmin    Chinge    XCp    
 ------- -------- --------- --------- -------- ------- ------- -------- --------- ---------
 -13.500  -0.2725   0.18433   0.18126  -0.0194  1.0000  0.0170  -1.1855   0.0000   0.1582
 -13.000  -0.2632   0.17974   0.17670  -0.0196  1.0000  0.0171  -1.1904   0.0000   0.1550
 -12.500  -0.2546   0.17524   0.17225  -0.0197  1.0000  0.0171  -1.1963   0.0000   0.1524
 -12.000  -0.2467   0.17087   0.16792  -0.0196  1.0000  0.0171  -1.2032   0.0000   0.1506
 -11.500  -0.2396   0.16661   0.16372  -0.0193  1.0000  0.0171  -1.2108   0.0000   0.1498
 -11.000  -0.1997   0.15917   0.15625  -0.0283  0.9955  0.0171  -1.2031   0.0000   0.0843
 -10.500  -0.1575   0.15140   0.14846  -0.0378  0.9897  0.0171  -1.1950   0.0000  -0.0204
 -10.000  -0.1240   0.14443   0.14147  -0.0446  0.9843  0.0171  -1.1913   0.0000  -0.1480
  -9.500  -0.0889   0.13751   0.13455  -0.0517  0.9801  0.0172  -1.1879   0.0000  -0.3850
  -9.000  -0.0581   0.13083   0.12787  -0.0575  0.9733  0.0172  -1.1870   0.0000  -0.8188
  -8.000   0.0035   0.11357   0.11066  -0.0701  0.9608  0.0178  -1.3130   0.0000  21.5577
  -7.500   0.0344   0.10604   0.10315  -0.0734  0.9521  0.0184  -1.2509   0.0000   2.5044
  -7.000   0.0766   0.09914   0.09626  -0.0796  0.9457  0.0190  -1.1536   0.0000   1.3423
  -6.500   0.1032   0.09363   0.09078  -0.0822  0.9321  0.0197  -1.0968   0.0000   1.0829
  -6.000   0.1313   0.08811   0.08527  -0.0854  0.9174  0.0204  -1.0532   0.0000   0.9262
  -5.500   0.1566   0.08282   0.08001  -0.0878  0.8984  0.0212  -1.0235   0.0000   0.8307
  -5.000   0.1751   0.07801   0.07522  -0.0886  0.8701  0.0221  -1.0084   0.0000   0.7712
  -4.500   0.2290   0.07076   0.06785  -0.0986  0.8358  0.0237  -0.9786   0.0000   0.6912
  -4.000   0.3469   0.06023   0.05673  -0.1261  0.7439  0.0273  -0.9564   0.0000   0.6204
  -3.500   0.3811   0.05673   0.05261  -0.1320  0.6392  0.0295  -1.0002   0.0000   0.6013
  -3.000   0.4146   0.05236   0.04794  -0.1371  0.5857  0.0299  -1.0202   0.0000   0.5841
  -2.500   0.4740   0.04577   0.04111  -0.1491  0.5514  0.0301  -1.0561   0.0000   0.5667
  -2.000   0.7723   0.02178   0.01559  -0.2293  0.5150  0.0337  -1.2894   0.0000   0.5478
  -1.500   0.9265   0.01728   0.00969  -0.2514  0.4881  0.0284  -1.2706   0.0000   0.5214
  -1.000   1.0145   0.01616   0.00822  -0.2583  0.4728  0.0342  -1.3477   0.0000   0.5038
  -0.500   1.0837   0.01640   0.00821  -0.2611  0.4538  0.0436  -1.4141   0.0000   0.4893
   0.000   1.1595   0.01609   0.00775  -0.2649  0.4454  0.0447  -1.4852   0.0000   0.4760
   0.500   1.2371   0.01604   0.00802  -0.2694  0.4353  0.2824  -1.5604   0.0000   0.4645
   1.000   1.2927   0.01663   0.00857  -0.2691  0.4257  0.3323  -1.6265   0.0000   0.4540
   1.500   1.3590   0.01732   0.00915  -0.2711  0.4163  0.3564  -1.6991   0.0000   0.4445
   2.000   1.4164   0.01757   0.00953  -0.2712  0.4119  0.3902  -1.7671   0.0000   0.4357
   2.500   1.4726   0.01792   0.00996  -0.2711  0.4058  0.4373  -1.8349   0.0000   0.4275
   3.000   1.5305   0.01837   0.01052  -0.2714  0.4000  0.5103  -1.9042   0.0000   0.4198
   3.500   1.5892   0.01888   0.01122  -0.2719  0.3942  0.6309  -1.9747   0.0000   0.4127
   4.500   1.6974   0.02031   0.01297  -0.2711  0.3814  1.0000  -2.1141   0.0000   0.3996
   5.000   1.7468   0.02084   0.01354  -0.2697  0.3787  1.0000  -2.1877   0.0000   0.3934
   5.500   1.7946   0.02143   0.01416  -0.2680  0.3745  1.0000  -2.2656   0.0000   0.3874
   6.000   1.8428   0.02211   0.01489  -0.2665  0.3699  1.0000  -2.3546   0.0000   0.3818
   6.500   1.8869   0.02275   0.01555  -0.2641  0.3644  1.0000  -2.4476   0.0000   0.3762
   7.000   1.9298   0.02346   0.01627  -0.2616  0.3590  1.0000  -2.5424   0.0000   0.3708
   7.500   1.9844   0.02473   0.01760  -0.2618  0.3500  1.0000  -2.6680   0.0000   0.3662
   8.000   2.0261   0.02566   0.01868  -0.2592  0.3457  1.0000  -2.8186   0.0000   0.3612
   8.500   2.0578   0.02632   0.01952  -0.2544  0.3415  1.0000  -2.9682   0.0000   0.3559
   9.000   2.0874   0.02700   0.02033  -0.2494  0.3352  1.0000  -3.1174   0.0000   0.3507
   9.500   2.1169   0.02776   0.02117  -0.2445  0.3285  1.0000  -3.2692   0.0000   0.3457
  10.000   2.1476   0.02885   0.02230  -0.2401  0.3182  1.0000  -3.4257   0.0000   0.3409
  10.500   2.1722   0.02996   0.02362  -0.2347  0.3114  1.0000  -3.5727   0.0000   0.3361
  11.000   2.1940   0.03110   0.02500  -0.2289  0.3051  1.0000  -3.7160   0.0000   0.3312
  11.500   2.2155   0.03239   0.02647  -0.2233  0.2974  1.0000  -3.8740   0.0000   0.3266
  12.000   2.2334   0.03410   0.02823  -0.2175  0.2885  1.0000  -4.0331   0.0000   0.3220
  12.500   2.2517   0.03607   0.03042  -0.2121  0.2800  1.0000  -4.1934   0.0000   0.3177
  13.000   2.2669   0.03812   0.03278  -0.2067  0.2701  1.0000  -4.3491   0.0000   0.3134
  13.500   2.2664   0.04141   0.03606  -0.1999  0.2547  1.0000  -4.4708   0.0000   0.3092
  14.000   2.2664   0.04529   0.04009  -0.1943  0.2343  1.0000  -4.5926   0.0000   0.3054
  14.500   2.2501   0.05120   0.04604  -0.1883  0.2101  1.0000  -4.6732   0.0000   0.3021
  15.000   2.2214   0.05949   0.05435  -0.1835  0.1873  1.0000  -4.7177   0.0000   0.2996
  15.500   2.1816   0.07037   0.06535  -0.1807  0.1693  1.0000  -4.7256   0.0000   0.2984
  16.000   2.1375   0.08296   0.07812  -0.1803  0.1543  1.0000  -4.7120   0.0000   0.2985
  16.500   2.0931   0.09619   0.09157  -0.1818  0.1423  1.0000  -4.6865   0.0000   0.2995
  17.000   2.0447   0.11010   0.10564  -0.1847  0.1312  1.0000  -4.6397   0.0000   0.3015


