XFLR5 v6.09.05 beta

 Calculated polar for: S1223

 1 1 Reynolds number fixed          Mach number fixed         

 xtrf =   1.000 (top)        1.000 (bottom)
 Mach =   0.000     Re =     0.305 e 6     Ncrit =   9.000

  alpha     CL        CD       CDp       Cm    Top Xtr Bot Xtr   Cpmin    Chinge    XCp    
 ------- -------- --------- --------- -------- ------- ------- -------- --------- ---------
 -15.000  -0.3036   0.19874   0.19555  -0.0178  1.0000  0.0170  -1.1779   0.0000   0.1703
 -14.500  -0.2929   0.19393   0.19078  -0.0185  1.0000  0.0170  -1.1812   0.0000   0.1658
 -14.000  -0.2825   0.18917   0.18604  -0.0191  1.0000  0.0170  -1.1850   0.0000   0.1616
 -13.500  -0.2726   0.18448   0.18138  -0.0195  1.0000  0.0171  -1.1891   0.0000   0.1578
 -13.000  -0.2633   0.17988   0.17682  -0.0197  1.0000  0.0171  -1.1941   0.0000   0.1546
 -12.500  -0.2547   0.17538   0.17236  -0.0198  1.0000  0.0171  -1.2000   0.0000   0.1519
 -12.000  -0.2468   0.17101   0.16804  -0.0197  1.0000  0.0171  -1.2070   0.0000   0.1501
 -11.500  -0.2397   0.16674   0.16381  -0.0194  1.0000  0.0171  -1.2144   0.0000   0.1493
 -11.000  -0.2040   0.15969   0.15675  -0.0273  0.9960  0.0171  -1.2087   0.0000   0.0932
 -10.500  -0.1610   0.15184   0.14888  -0.0370  0.9901  0.0171  -1.2002   0.0000  -0.0094
 -10.000  -0.1272   0.14486   0.14188  -0.0439  0.9848  0.0171  -1.1965   0.0000  -0.1323
  -9.500  -0.0909   0.13787   0.13489  -0.0514  0.9809  0.0172  -1.1926   0.0000  -0.3670
  -8.000  -0.0002   0.11321   0.11027  -0.0689  0.9612  0.0180  -1.3103   0.0000  -386.9655
  -7.500   0.0337   0.10621   0.10330  -0.0725  0.9528  0.0186  -1.2151   0.0000   2.5223
  -7.000   0.0747   0.09951   0.09661  -0.0787  0.9459  0.0193  -1.1291   0.0000   1.3572
  -6.500   0.1015   0.09398   0.09112  -0.0815  0.9324  0.0199  -1.0785   0.0000   1.0895
  -6.000   0.1302   0.08841   0.08555  -0.0850  0.9179  0.0207  -1.0393   0.0000   0.9287
  -5.500   0.1564   0.08302   0.08020  -0.0877  0.8996  0.0216  -1.0124   0.0000   0.8306
  -5.000   0.1736   0.07829   0.07548  -0.0882  0.8710  0.0225  -1.0011   0.0000   0.7733
  -4.500   0.2233   0.07129   0.06837  -0.0971  0.8369  0.0241  -0.9775   0.0000   0.6958
  -4.000   0.3432   0.06057   0.05710  -0.1255  0.7507  0.0279  -0.9699   0.0000   0.6227
  -3.500   0.3842   0.05682   0.05271  -0.1329  0.6429  0.0297  -1.0009   0.0000   0.6008
  -3.000   0.4166   0.05232   0.04789  -0.1377  0.5881  0.0299  -1.0233   0.0000   0.5841
  -1.500   0.9254   0.01742   0.00980  -0.2511  0.4890  0.0286  -1.2697   0.0000   0.5214
  -1.000   1.0143   0.01623   0.00828  -0.2583  0.4741  0.0348  -1.3473   0.0000   0.5038
  -0.500   1.0818   0.01644   0.00824  -0.2607  0.4561  0.0439  -1.4128   0.0000   0.4893
   0.000   1.1595   0.01618   0.00781  -0.2649  0.4463  0.0451  -1.4848   0.0000   0.4760
   0.500   1.2375   0.01611   0.00808  -0.2695  0.4364  0.2849  -1.5603   0.0000   0.4645
   1.000   1.2926   0.01669   0.00863  -0.2691  0.4272  0.3340  -1.6261   0.0000   0.4540
   1.500   1.3602   0.01745   0.00924  -0.2714  0.4168  0.3575  -1.6994   0.0000   0.4446
   2.000   1.4175   0.01769   0.00961  -0.2715  0.4127  0.3920  -1.7674   0.0000   0.4357
   2.500   1.4738   0.01804   0.01005  -0.2714  0.4067  0.4395  -1.8352   0.0000   0.4275
   3.000   1.5320   0.01848   0.01062  -0.2717  0.4009  0.5139  -1.9046   0.0000   0.4199
   3.500   1.5904   0.01898   0.01131  -0.2722  0.3952  0.6355  -1.9747   0.0000   0.4128
   4.000   1.6394   0.01938   0.01200  -0.2705  0.3892  0.8714  -2.0389   0.0000   0.4058
   5.000   1.7478   0.02101   0.01366  -0.2699  0.3793  1.0000  -2.1880   0.0000   0.3934
   5.500   1.7955   0.02158   0.01429  -0.2682  0.3752  1.0000  -2.2657   0.0000   0.3875
   6.000   1.8437   0.02227   0.01502  -0.2667  0.3707  1.0000  -2.3550   0.0000   0.3818
   6.500   1.8883   0.02292   0.01570  -0.2644  0.3652  1.0000  -2.4484   0.0000   0.3763
   7.000   1.9311   0.02362   0.01640  -0.2619  0.3598  1.0000  -2.5432   0.0000   0.3709
   7.500   1.9804   0.02469   0.01755  -0.2608  0.3517  1.0000  -2.6630   0.0000   0.3660
   8.000   2.0283   0.02587   0.01886  -0.2597  0.3461  1.0000  -2.8216   0.0000   0.3613
   8.500   2.0593   0.02652   0.01969  -0.2548  0.3421  1.0000  -2.9701   0.0000   0.3560
   9.000   2.0884   0.02720   0.02051  -0.2497  0.3359  1.0000  -3.1183   0.0000   0.3508
   9.500   2.1177   0.02795   0.02135  -0.2447  0.3292  1.0000  -3.2698   0.0000   0.3458
  10.000   2.1460   0.02894   0.02239  -0.2398  0.3196  1.0000  -3.4223   0.0000   0.3408
  10.500   2.1729   0.03014   0.02377  -0.2348  0.3119  1.0000  -3.5731   0.0000   0.3361
  11.000   2.1939   0.03128   0.02516  -0.2289  0.3057  1.0000  -3.7150   0.0000   0.3312
  11.500   2.2151   0.03258   0.02664  -0.2232  0.2981  1.0000  -3.8721   0.0000   0.3266
  12.000   2.2330   0.03424   0.02836  -0.2174  0.2893  1.0000  -4.0313   0.0000   0.3220
  12.500   2.2506   0.03626   0.03058  -0.2120  0.2806  1.0000  -4.1902   0.0000   0.3177
  13.000   2.2655   0.03832   0.03297  -0.2065  0.2709  1.0000  -4.3448   0.0000   0.3134
  13.500   2.2668   0.04144   0.03612  -0.1999  0.2564  1.0000  -4.4707   0.0000   0.3092
  14.000   2.2669   0.04528   0.04011  -0.1942  0.2368  1.0000  -4.5926   0.0000   0.3054
  14.500   2.2511   0.05109   0.04595  -0.1883  0.2132  1.0000  -4.6745   0.0000   0.3020
  15.000   2.2221   0.05935   0.05424  -0.1834  0.1905  1.0000  -4.7186   0.0000   0.2995
  15.500   2.1803   0.07045   0.06544  -0.1805  0.1719  1.0000  -4.7214   0.0000   0.2984
  16.000   2.1406   0.08239   0.07757  -0.1801  0.1564  1.0000  -4.7199   0.0000   0.2982
  16.500   2.0928   0.09609   0.09148  -0.1816  0.1445  1.0000  -4.6851   0.0000   0.2994
  17.000   2.0472   0.10959   0.10515  -0.1843  0.1329  1.0000  -4.6464   0.0000   0.3012


