XFLR5 v6.09.05 beta

 Calculated polar for: S1223

 1 1 Reynolds number fixed          Mach number fixed         

 xtrf =   1.000 (top)        1.000 (bottom)
 Mach =   0.000     Re =     0.090 e 6     Ncrit =   9.000

  alpha     CL        CD       CDp       Cm    Top Xtr Bot Xtr   Cpmin    Chinge    XCp    
 ------- -------- --------- --------- -------- ------- ------- -------- --------- ---------
 -14.000  -0.2634   0.18635   0.18054  -0.0225  1.0000  0.0425  -0.9568   0.0000   0.1416
 -13.500  -0.2530   0.18227   0.17654  -0.0233  1.0000  0.0435  -0.9646   0.0000   0.1351
 -13.000  -0.2440   0.17894   0.17327  -0.0241  1.0000  0.0444  -0.9814   0.0000   0.1287
 -12.500  -0.2375   0.17658   0.17100  -0.0249  1.0000  0.0450  -1.0077   0.0000   0.1232
 -12.000  -0.2336   0.17479   0.16930  -0.0255  1.0000  0.0455  -1.0399   0.0000   0.1196
 -11.500  -0.2314   0.17300   0.16761  -0.0258  1.0000  0.0457  -1.0728   0.0000   0.1181
 -11.000  -0.2307   0.17110   0.16582  -0.0258  1.0000  0.0459  -1.1059   0.0000   0.1188
 -10.500  -0.2308   0.16894   0.16377  -0.0256  1.0000  0.0461  -1.1375   0.0000   0.1211
 -10.000  -0.2299   0.16610   0.16106  -0.0250  1.0000  0.0462  -1.1626   0.0000   0.1241
  -9.500  -0.2291   0.16298   0.15806  -0.0241  1.0000  0.0463  -1.1828   0.0000   0.1286
  -9.000  -0.1981   0.14601   0.14116  -0.0212  1.0000  0.0483  -1.0643   0.0000   0.1246
  -8.500  -0.1907   0.14099   0.13626  -0.0189  1.0000  0.0497  -1.0140   0.0000   0.1332
  -8.000  -0.1890   0.13747   0.13289  -0.0166  1.0000  0.0512  -0.9900   0.0000   0.1452
  -7.500  -0.1916   0.13469   0.13027  -0.0142  1.0000  0.0528  -0.9800   0.0000   0.1602
  -7.000  -0.1630   0.12986   0.12551  -0.0200  0.9934  0.0556  -0.9552   0.0000   0.1097
  -6.500  -0.1087   0.12295   0.11859  -0.0324  0.9768  0.0600  -0.9335   0.0000  -0.0752
  -6.000  -0.0711   0.11998   0.11565  -0.0454  0.9523  0.0642  -0.9918   0.0000  -0.4287
  -5.500  -0.0340   0.11746   0.11314  -0.0595  0.9259  0.0654  -1.0672   0.0000  -1.5783
  -5.000   0.0199   0.10252   0.09822  -0.0615  0.9092  0.0690  -0.9439   0.0000   3.4776
  -4.500   0.0723   0.09445   0.09017  -0.0669  0.8861  0.0751  -0.8440   0.0000   1.2074
  -3.500   0.1722   0.08170   0.07743  -0.0946  0.8151  0.0889  -0.9339   0.0000   0.8095
  -3.000   0.2193   0.07213   0.06783  -0.0901  0.7913  0.0967  -0.8506   0.0000   0.6673
  -2.500   0.3299   0.06255   0.05799  -0.1172  0.7550  0.1161  -0.9121   0.0000   0.6084
  -2.000   0.4633   0.05306   0.04797  -0.1415  0.7124  0.1445  -0.9968   0.0000   0.5569
  -1.500   0.5856   0.04611   0.04047  -0.1623  0.6690  0.1766  -1.0787   0.0000   0.5276
  -0.500   1.1008   0.02293   0.01345  -0.2671  0.5952  0.1039  -1.3840   0.0000   0.4914
   0.000   1.1570   0.02446   0.01575  -0.2657  0.5762  0.3935  -1.4387   0.0000   0.4777
   0.500   1.2172   0.02572   0.01668  -0.2661  0.5598  0.4507  -1.5015   0.0000   0.4658
   1.000   1.2768   0.02621   0.01711  -0.2669  0.5452  0.4846  -1.5624   0.0000   0.4555
   1.500   1.3453   0.02704   0.01768  -0.2697  0.5335  0.5196  -1.6310   0.0000   0.4461
   2.000   1.4065   0.02847   0.01914  -0.2711  0.5239  0.5699  -1.6914   0.0000   0.4376
   2.500   1.4569   0.02956   0.02040  -0.2702  0.5151  0.6431  -1.7430   0.0000   0.4295
   3.000   1.5006   0.03037   0.02149  -0.2675  0.5054  0.7708  -1.7966   0.0000   0.4215
   3.500   1.5477   0.03133   0.02232  -0.2661  0.4968  1.0000  -1.8574   0.0000   0.4143
   4.000   1.6013   0.03422   0.02505  -0.2666  0.4893  1.0000  -1.9192   0.0000   0.4080
   4.500   1.6401   0.03628   0.02730  -0.2640  0.4833  1.0000  -1.9754   0.0000   0.4017
   5.000   1.6762   0.03874   0.03005  -0.2611  0.4763  1.0000  -2.0289   0.0000   0.3957
   5.500   1.7142   0.04093   0.03231  -0.2584  0.4676  1.0000  -2.0962   0.0000   0.3898
   6.000   1.7583   0.04313   0.03449  -0.2566  0.4603  1.0000  -2.1781   0.0000   0.3841
   6.500   1.7966   0.04759   0.03897  -0.2548  0.4531  1.0000  -2.2523   0.0000   0.3791
   7.000   1.7877   0.05155   0.04346  -0.2452  0.4460  1.0000  -2.2730   0.0000   0.3736
   7.500   1.7458   0.05819   0.05060  -0.2320  0.4375  1.0000  -2.2544   0.0000   0.3686
   8.000   1.5211   0.08350   0.07672  -0.2093  0.4250  1.0000  -1.9664   0.0000   0.3727
   8.500   1.8172   0.06314   0.05585  -0.2264  0.4212  1.0000  -2.4494   0.0000   0.3583


