XFLR5 v6.09.05 beta

 Calculated polar for: S1223

 1 1 Reynolds number fixed          Mach number fixed         

 xtrf =   1.000 (top)        1.000 (bottom)
 Mach =   0.000     Re =     0.160 e 6     Ncrit =   9.000

  alpha     CL        CD       CDp       Cm    Top Xtr Bot Xtr   Cpmin    Chinge    XCp    
 ------- -------- --------- --------- -------- ------- ------- -------- --------- ---------
 -15.000  -0.2925   0.19342   0.18901  -0.0184  1.0000  0.0265  -1.0145   0.0000   0.1647
 -14.500  -0.2810   0.18871   0.18431  -0.0192  1.0000  0.0268  -1.0141   0.0000   0.1592
 -14.000  -0.2698   0.18409   0.17974  -0.0199  1.0000  0.0271  -1.0162   0.0000   0.1539
 -13.500  -0.2592   0.17960   0.17530  -0.0205  1.0000  0.0275  -1.0202   0.0000   0.1487
 -13.000  -0.2491   0.17529   0.17105  -0.0209  1.0000  0.0279  -1.0273   0.0000   0.1438
 -12.500  -0.2398   0.17125   0.16706  -0.0213  1.0000  0.0283  -1.0384   0.0000   0.1392
 -12.000  -0.2317   0.16757   0.16345  -0.0215  1.0000  0.0287  -1.0542   0.0000   0.1353
 -11.500  -0.2251   0.16426   0.16021  -0.0217  1.0000  0.0290  -1.0737   0.0000   0.1325
 -11.000  -0.2200   0.16119   0.15721  -0.0216  1.0000  0.0292  -1.0956   0.0000   0.1312
 -10.500  -0.2165   0.15822   0.15433  -0.0213  1.0000  0.0294  -1.1195   0.0000   0.1319
 -10.000  -0.2147   0.15537   0.15157  -0.0207  1.0000  0.0296  -1.1447   0.0000   0.1347
  -9.500  -0.2147   0.15264   0.14893  -0.0199  1.0000  0.0297  -1.1714   0.0000   0.1397
  -9.000  -0.2069   0.14920   0.14554  -0.0212  0.9986  0.0298  -1.1917   0.0000   0.1303
  -8.500  -0.1582   0.14210   0.13841  -0.0327  0.9896  0.0299  -1.1872   0.0000   0.0197
  -8.000  -0.1147   0.13501   0.13132  -0.0425  0.9801  0.0300  -1.1846   0.0000  -0.1524
  -7.000  -0.0316   0.11391   0.11027  -0.0542  0.9610  0.0322  -1.0855   0.0000  -1.5757
  -6.500   0.0096   0.10690   0.10329  -0.0600  0.9482  0.0339  -0.9979   0.0000   6.8396
  -6.000   0.0478   0.10046   0.09688  -0.0659  0.9333  0.0358  -0.9475   0.0000   1.6956
  -5.500   0.0824   0.09428   0.09070  -0.0712  0.9154  0.0381  -0.9194   0.0000   1.1482
  -5.000   0.1125   0.08850   0.08496  -0.0755  0.8941  0.0407  -0.9113   0.0000   0.9441
  -4.500   0.1355   0.08361   0.08010  -0.0793  0.8672  0.0438  -0.9450   0.0000   0.8519
  -4.000   0.1894   0.07771   0.07417  -0.0932  0.8354  0.0460  -1.0126   0.0000   0.7521
  -3.500   0.2429   0.06664   0.06302  -0.1035  0.7971  0.0480  -1.0329   0.0000   0.6831
  -3.000   0.3531   0.05762   0.05353  -0.1195  0.7288  0.0557  -0.9377   0.0000   0.5925
  -2.500   0.4848   0.04724   0.04243  -0.1555  0.6523  0.0678  -1.0043   0.0000   0.5729
  -2.000   0.5304   0.04410   0.03886  -0.1561  0.6067  0.0747  -1.0446   0.0000   0.5455
  -1.500   0.6574   0.03648   0.03077  -0.1831  0.5721  0.0966  -1.1248   0.0000   0.5286
  -1.000   1.0147   0.02003   0.01136  -0.2594  0.5349  0.0627  -1.3354   0.0000   0.5049
  -0.500   1.0998   0.01940   0.01039  -0.2651  0.5172  0.0636  -1.4071   0.0000   0.4895
   0.000   1.1879   0.01921   0.01039  -0.2716  0.5004  0.2881  -1.4836   0.0000   0.4764
   0.500   1.2427   0.02053   0.01174  -0.2710  0.4874  0.3754  -1.5456   0.0000   0.4650
   1.000   1.3011   0.02099   0.01213  -0.2712  0.4781  0.4010  -1.6101   0.0000   0.4546
   1.500   1.3630   0.02142   0.01252  -0.2724  0.4689  0.4306  -1.6779   0.0000   0.4451
   2.000   1.4266   0.02213   0.01318  -0.2740  0.4603  0.4721  -1.7475   0.0000   0.4365
   2.500   1.4910   0.02329   0.01435  -0.2758  0.4516  0.5387  -1.8160   0.0000   0.4286
   3.000   1.5444   0.02377   0.01514  -0.2751  0.4452  0.6441  -1.8778   0.0000   0.4209
   3.500   1.5784   0.02395   0.01578  -0.2701  0.4393  0.9111  -1.9278   0.0000   0.4130
   4.000   1.6338   0.02490   0.01661  -0.2701  0.4329  1.0000  -1.9991   0.0000   0.4064
   4.500   1.6889   0.02599   0.01767  -0.2701  0.4269  1.0000  -2.0725   0.0000   0.4001
   5.000   1.7450   0.02767   0.01923  -0.2705  0.4203  1.0000  -2.1530   0.0000   0.3943
   5.500   1.7928   0.02929   0.02096  -0.2693  0.4143  1.0000  -2.2297   0.0000   0.3886
   6.000   1.8375   0.03046   0.02229  -0.2673  0.4094  1.0000  -2.3154   0.0000   0.3830
   6.500   1.8803   0.03165   0.02361  -0.2649  0.4028  1.0000  -2.4032   0.0000   0.3775
   7.000   1.9246   0.03275   0.02477  -0.2628  0.3960  1.0000  -2.5002   0.0000   0.3722
   7.500   1.9725   0.03383   0.02602  -0.2615  0.3894  1.0000  -2.6187   0.0000   0.3672
   8.000   2.0150   0.03658   0.02887  -0.2598  0.3811  1.0000  -2.7601   0.0000   0.3626
   8.500   2.0448   0.03758   0.03016  -0.2551  0.3754  1.0000  -2.9031   0.0000   0.3574
   9.000   2.0725   0.03902   0.03187  -0.2501  0.3683  1.0000  -3.0444   0.0000   0.3523
   9.500   2.1059   0.03984   0.03280  -0.2461  0.3603  1.0000  -3.2010   0.0000   0.3475
  10.000   2.1537   0.04048   0.03347  -0.2448  0.3516  1.0000  -3.3884   0.0000   0.3431
  10.500   2.1650   0.04281   0.03614  -0.2374  0.3438  1.0000  -3.5061   0.0000   0.3381
  11.000   2.1574   0.04445   0.03813  -0.2265  0.3359  1.0000  -3.5914   0.0000   0.3324
  11.500   2.1740   0.04492   0.03870  -0.2197  0.3262  1.0000  -3.7278   0.0000   0.3273
  12.000   2.2176   0.04547   0.03911  -0.2178  0.3146  1.0000  -3.9420   0.0000   0.3233
  12.500   2.1886   0.04864   0.04280  -0.2053  0.3080  1.0000  -3.9957   0.0000   0.3177
  13.000   2.1776   0.05166   0.04615  -0.1967  0.2985  1.0000  -4.0883   0.0000   0.3131
  13.500   2.1926   0.05296   0.04752  -0.1916  0.2888  1.0000  -4.2436   0.0000   0.3088


