XFLR5 v6.09.05 beta

 Calculated polar for: S1223

 1 1 Reynolds number fixed          Mach number fixed         

 xtrf =   1.000 (top)        1.000 (bottom)
 Mach =   0.000     Re =     0.095 e 6     Ncrit =   9.000

  alpha     CL        CD       CDp       Cm    Top Xtr Bot Xtr   Cpmin    Chinge    XCp    
 ------- -------- --------- --------- -------- ------- ------- -------- --------- ---------
 -15.000  -0.2868   0.19497   0.18925  -0.0205  1.0000  0.0380  -0.9668   0.0000   0.1556
 -14.500  -0.2751   0.19023   0.18453  -0.0213  1.0000  0.0388  -0.9564   0.0000   0.1495
 -14.000  -0.2638   0.18557   0.17993  -0.0220  1.0000  0.0396  -0.9529   0.0000   0.1436
 -13.500  -0.2530   0.18101   0.17543  -0.0226  1.0000  0.0405  -0.9511   0.0000   0.1378
 -13.000  -0.2427   0.17658   0.17107  -0.0230  1.0000  0.0415  -0.9517   0.0000   0.1322
 -12.500  -0.2331   0.17239   0.16695  -0.0234  1.0000  0.0426  -0.9564   0.0000   0.1269
 -12.000  -0.2247   0.16870   0.16335  -0.0237  1.0000  0.0437  -0.9690   0.0000   0.1219
 -11.500  -0.2187   0.16601   0.16074  -0.0241  1.0000  0.0446  -0.9945   0.0000   0.1178
 -11.000  -0.2159   0.16427   0.15911  -0.0244  1.0000  0.0452  -1.0299   0.0000   0.1161
 -10.500  -0.2159   0.16281   0.15776  -0.0244  1.0000  0.0456  -1.0676   0.0000   0.1174
 -10.000  -0.2180   0.16129   0.15636  -0.0240  1.0000  0.0458  -1.1051   0.0000   0.1217
  -9.500  -0.2211   0.15949   0.15469  -0.0232  1.0000  0.0460  -1.1401   0.0000   0.1280
  -9.000  -0.2233   0.15706   0.15239  -0.0222  1.0000  0.0461  -1.1678   0.0000   0.1350
  -8.500  -0.2263   0.15447   0.14991  -0.0207  1.0000  0.0462  -1.1907   0.0000   0.1441
  -7.500  -0.2004   0.13560   0.13132  -0.0149  1.0000  0.0491  -1.0602   0.0000   0.1608
  -7.000  -0.1480   0.12814   0.12386  -0.0243  0.9896  0.0520  -0.9748   0.0000   0.0658
  -6.500  -0.0941   0.12084   0.11656  -0.0353  0.9736  0.0559  -0.9272   0.0000  -0.1572
  -6.000  -0.0472   0.11416   0.10989  -0.0456  0.9536  0.0604  -0.9125   0.0000  -0.7769
  -4.500   0.0766   0.09332   0.08912  -0.0700  0.8847  0.0701  -0.8970   0.0000   1.1946
  -4.000   0.1148   0.08661   0.08246  -0.0728  0.8515  0.0760  -0.8272   0.0000   0.9016
  -3.500   0.1793   0.08121   0.07700  -0.0920  0.8148  0.0869  -0.8839   0.0000   0.7724
  -3.000   0.2336   0.07040   0.06615  -0.0970  0.7873  0.0919  -0.8553   0.0000   0.6713
  -2.500   0.3710   0.06026   0.05563  -0.1295  0.7488  0.1145  -0.9326   0.0000   0.6019
  -1.500   0.6082   0.04477   0.03910  -0.1697  0.6566  0.1743  -1.0900   0.0000   0.5294
  -1.000   1.0068   0.02338   0.01443  -0.2593  0.6103  0.0862  -1.3130   0.0000   0.5070
  -0.500   1.1002   0.02245   0.01305  -0.2667  0.5862  0.0979  -1.3859   0.0000   0.4912
   0.000   1.1658   0.02406   0.01521  -0.2674  0.5673  0.3887  -1.4480   0.0000   0.4774
   0.500   1.2176   0.02498   0.01607  -0.2661  0.5517  0.4428  -1.5043   0.0000   0.4657
   1.000   1.2827   0.02554   0.01639  -0.2680  0.5375  0.4756  -1.5710   0.0000   0.4553
   1.500   1.3537   0.02682   0.01738  -0.2715  0.5260  0.5111  -1.6402   0.0000   0.4461
   2.000   1.4083   0.02766   0.01843  -0.2714  0.5170  0.5585  -1.6962   0.0000   0.4375
   2.500   1.4612   0.02867   0.01954  -0.2708  0.5077  0.6319  -1.7519   0.0000   0.4293
   3.000   1.5107   0.02943   0.02047  -0.2692  0.4984  0.7620  -1.8115   0.0000   0.4213
   3.500   1.5558   0.03127   0.02222  -0.2676  0.4898  1.0000  -1.8685   0.0000   0.4143
   4.000   1.6022   0.03296   0.02398  -0.2664  0.4838  1.0000  -1.9245   0.0000   0.4077
   4.500   1.6453   0.03498   0.02611  -0.2645  0.4769  1.0000  -1.9854   0.0000   0.4014
   5.000   1.6868   0.03711   0.02844  -0.2624  0.4697  1.0000  -2.0465   0.0000   0.3954
   5.500   1.7341   0.03890   0.03016  -0.2610  0.4616  1.0000  -2.1255   0.0000   0.3895
   6.000   1.7808   0.04244   0.03364  -0.2603  0.4539  1.0000  -2.2090   0.0000   0.3842
   6.500   1.7975   0.04552   0.03712  -0.2543  0.4484  1.0000  -2.2585   0.0000   0.3787
   7.000   1.8054   0.04902   0.04100  -0.2471  0.4399  1.0000  -2.3011   0.0000   0.3732
   7.500   1.8214   0.05245   0.04465  -0.2414  0.4319  1.0000  -2.3619   0.0000   0.3680
   8.000   1.8585   0.05465   0.04710  -0.2386  0.4242  1.0000  -2.4630   0.0000   0.3629
   8.500   1.8816   0.05938   0.05194  -0.2347  0.4159  1.0000  -2.5549   0.0000   0.3583


