XFLR5 v6.09.05 beta

 Calculated polar for: S1223

 1 1 Reynolds number fixed          Mach number fixed         

 xtrf =   1.000 (top)        1.000 (bottom)
 Mach =   0.000     Re =     0.295 e 6     Ncrit =   9.000

  alpha     CL        CD       CDp       Cm    Top Xtr Bot Xtr   Cpmin    Chinge    XCp    
 ------- -------- --------- --------- -------- ------- ------- -------- --------- ---------
 -14.000  -0.2827   0.18951   0.18631  -0.0193  1.0000  0.0171  -1.1925   0.0000   0.1608
 -13.500  -0.2729   0.18480   0.18165  -0.0197  1.0000  0.0171  -1.1967   0.0000   0.1569
 -13.000  -0.2636   0.18020   0.17708  -0.0200  1.0000  0.0171  -1.2019   0.0000   0.1537
 -12.500  -0.2550   0.17569   0.17261  -0.0201  1.0000  0.0171  -1.2080   0.0000   0.1510
 -12.000  -0.2471   0.17128   0.16826  -0.0200  1.0000  0.0171  -1.2146   0.0000   0.1492
 -11.500  -0.2400   0.16700   0.16403  -0.0197  1.0000  0.0171  -1.2222   0.0000   0.1483
 -11.000  -0.2132   0.16081   0.15785  -0.0250  0.9973  0.0171  -1.2209   0.0000   0.1109
 -10.500  -0.1680   0.15276   0.14976  -0.0353  0.9910  0.0171  -1.2112   0.0000   0.0118
 -10.000  -0.1334   0.14573   0.14274  -0.0425  0.9859  0.0172  -1.2072   0.0000  -0.1036
  -8.500  -0.0405   0.12105   0.11807  -0.0614  0.9689  0.0179  -1.3259   0.0000  -1.3778
  -7.500   0.0319   0.10676   0.10381  -0.0708  0.9543  0.0191  -1.1536   0.0000   2.6018
  -6.500   0.0980   0.09470   0.09180  -0.0802  0.9330  0.0205  -1.0474   0.0000   1.1065
  -6.000   0.1278   0.08899   0.08610  -0.0841  0.9191  0.0213  -1.0155   0.0000   0.9347
  -5.500   0.1579   0.08327   0.08040  -0.0880  0.9028  0.0223  -0.9923   0.0000   0.8270
  -5.000   0.1709   0.07881   0.07597  -0.0874  0.8729  0.0233  -0.9889   0.0000   0.7774
  -4.500   0.2130   0.07226   0.06934  -0.0945  0.8391  0.0249  -0.9768   0.0000   0.7050
  -4.000   0.3380   0.06156   0.05814  -0.1250  0.7632  0.0291  -0.9987   0.0000   0.6267
  -3.500   0.3888   0.05685   0.05276  -0.1344  0.6514  0.0299  -1.0053   0.0000   0.6006
  -3.000   0.4204   0.05221   0.04777  -0.1390  0.5933  0.0300  -1.0307   0.0000   0.5843
  -1.500   0.9227   0.01771   0.01005  -0.2505  0.4913  0.0289  -1.2676   0.0000   0.5215
  -0.500   1.0796   0.01654   0.00834  -0.2602  0.4603  0.0445  -1.4109   0.0000   0.4894
   0.000   1.1599   0.01637   0.00793  -0.2650  0.4482  0.0457  -1.4842   0.0000   0.4760
   0.500   1.2382   0.01627   0.00822  -0.2697  0.4387  0.2894  -1.5600   0.0000   0.4645
   1.000   1.2929   0.01683   0.00876  -0.2691  0.4298  0.3375  -1.6255   0.0000   0.4540
   1.500   1.3588   0.01760   0.00932  -0.2711  0.4191  0.3592  -1.6978   0.0000   0.4446
   2.000   1.4199   0.01794   0.00979  -0.2720  0.4141  0.3956  -1.7680   0.0000   0.4358
   2.500   1.4759   0.01828   0.01022  -0.2719  0.4085  0.4438  -1.8355   0.0000   0.4276
   3.000   1.5345   0.01872   0.01082  -0.2723  0.4028  0.5210  -1.9050   0.0000   0.4200
   4.000   1.6337   0.01940   0.01204  -0.2692  0.3918  0.9239  -2.0329   0.0000   0.4056
   5.000   1.7500   0.02137   0.01394  -0.2704  0.3803  1.0000  -2.1885   0.0000   0.3936
   5.500   1.7973   0.02192   0.01456  -0.2687  0.3767  1.0000  -2.2658   0.0000   0.3876
   6.000   1.8454   0.02262   0.01531  -0.2671  0.3723  1.0000  -2.3555   0.0000   0.3819
   6.500   1.8906   0.02327   0.01601  -0.2650  0.3668  1.0000  -2.4494   0.0000   0.3764
   7.000   1.9341   0.02397   0.01672  -0.2626  0.3613  1.0000  -2.5452   0.0000   0.3710
   7.500   1.9771   0.02481   0.01767  -0.2602  0.3544  1.0000  -2.6583   0.0000   0.3659
   8.000   2.0327   0.02632   0.01923  -0.2607  0.3468  1.0000  -2.8275   0.0000   0.3615
   8.500   2.0628   0.02694   0.02005  -0.2556  0.3433  1.0000  -2.9745   0.0000   0.3562
   9.000   2.0904   0.02761   0.02088  -0.2502  0.3373  1.0000  -3.1202   0.0000   0.3509
   9.500   2.1193   0.02836   0.02174  -0.2451  0.3306  1.0000  -3.2708   0.0000   0.3459
  10.000   2.1451   0.02921   0.02267  -0.2397  0.3220  1.0000  -3.4193   0.0000   0.3408
  10.500   2.1747   0.03053   0.02410  -0.2353  0.3128  1.0000  -3.5749   0.0000   0.3362
  11.000   2.1938   0.03166   0.02549  -0.2289  0.3069  1.0000  -3.7133   0.0000   0.3313
  11.500   2.2143   0.03296   0.02700  -0.2232  0.2993  1.0000  -3.8684   0.0000   0.3266
  12.000   2.2321   0.03454   0.02867  -0.2173  0.2908  1.0000  -4.0274   0.0000   0.3220
  12.500   2.2487   0.03663   0.03090  -0.2117  0.2815  1.0000  -4.1842   0.0000   0.3176
  13.000   2.2624   0.03873   0.03336  -0.2061  0.2725  1.0000  -4.3359   0.0000   0.3134
  13.500   2.2669   0.04159   0.03631  -0.1998  0.2593  1.0000  -4.4687   0.0000   0.3092
  14.000   2.2664   0.04539   0.04027  -0.1940  0.2415  1.0000  -4.5892   0.0000   0.3053
  14.500   2.2505   0.05110   0.04600  -0.1880  0.2194  1.0000  -4.6710   0.0000   0.3019
  15.000   2.2210   0.05937   0.05429  -0.1830  0.1966  1.0000  -4.7138   0.0000   0.2994
  15.500   2.1845   0.06972   0.06476  -0.1802  0.1770  1.0000  -4.7308   0.0000   0.2981
  16.000   2.1455   0.08145   0.07667  -0.1795  0.1610  1.0000  -4.7319   0.0000   0.2978
  16.500   2.0896   0.09631   0.09170  -0.1813  0.1486  1.0000  -4.6742   0.0000   0.2994
  17.000   2.0509   0.10874   0.10435  -0.1837  0.1367  1.0000  -4.6561   0.0000   0.3007


