XFLR5 v6.09.05 beta

 Calculated polar for: S1223

 1 1 Reynolds number fixed          Mach number fixed         

 xtrf =   1.000 (top)        1.000 (bottom)
 Mach =   0.000     Re =     0.125 e 6     Ncrit =   9.000

  alpha     CL        CD       CDp       Cm    Top Xtr Bot Xtr   Cpmin    Chinge    XCp    
 ------- -------- --------- --------- -------- ------- ------- -------- --------- ---------
 -14.000  -0.2872   0.19889   0.19399  -0.0245  1.0000  0.0300  -1.1946   0.0000   0.1442
 -13.500  -0.2780   0.19432   0.18947  -0.0250  1.0000  0.0300  -1.2009   0.0000   0.1398
 -11.500  -0.2255   0.16326   0.15869  -0.0233  1.0000  0.0317  -1.1110   0.0000   0.1253
 -11.000  -0.2156   0.15820   0.15371  -0.0223  1.0000  0.0324  -1.0721   0.0000   0.1250
 -10.500  -0.2076   0.15379   0.14939  -0.0214  1.0000  0.0331  -1.0450   0.0000   0.1259
 -10.000  -0.2012   0.14975   0.14544  -0.0203  1.0000  0.0339  -1.0261   0.0000   0.1284
  -9.500  -0.1963   0.14598   0.14174  -0.0192  1.0000  0.0348  -1.0134   0.0000   0.1327
  -9.000  -0.1932   0.14244   0.13831  -0.0178  1.0000  0.0357  -1.0059   0.0000   0.1392
  -8.500  -0.1920   0.13918   0.13517  -0.0162  1.0000  0.0367  -1.0030   0.0000   0.1482
  -8.000  -0.1719   0.13451   0.13057  -0.0197  0.9964  0.0381  -0.9912   0.0000   0.1165
  -7.500  -0.1211   0.12733   0.12338  -0.0310  0.9854  0.0405  -0.9690   0.0000  -0.0336
  -7.000  -0.0753   0.12084   0.11688  -0.0416  0.9725  0.0432  -0.9710   0.0000  -0.3457
  -6.500  -0.0423   0.11739   0.11345  -0.0522  0.9542  0.0453  -1.0352   0.0000  -1.0585
  -6.000  -0.0124   0.11339   0.10949  -0.0609  0.9331  0.0459  -1.0838   0.0000  -4.9101
  -5.500   0.0245   0.10735   0.10348  -0.0686  0.9119  0.0462  -1.0959   0.0000   3.1636
  -4.000   0.1443   0.08091   0.07713  -0.0774  0.8451  0.0572  -0.8571   0.0000   0.8000
  -3.500   0.2226   0.07435   0.07046  -0.1001  0.8087  0.0651  -0.9360   0.0000   0.7069
  -3.000   0.2908   0.06288   0.05883  -0.1084  0.7706  0.0697  -0.8949   0.0000   0.6276
  -2.000   0.5081   0.04737   0.04220  -0.1491  0.6492  0.0991  -1.0317   0.0000   0.5448
  -1.500   0.6213   0.04098   0.03530  -0.1712  0.6098  0.1244  -1.1054   0.0000   0.5258
  -0.500   1.1034   0.02065   0.01142  -0.2664  0.5465  0.0772  -1.4004   0.0000   0.4900
   0.000   1.1891   0.02151   0.01245  -0.2722  0.5274  0.3366  -1.4747   0.0000   0.4767
   0.500   1.2329   0.02248   0.01357  -0.2690  0.5151  0.4039  -1.5287   0.0000   0.4652
   1.000   1.2960   0.02290   0.01387  -0.2704  0.5034  0.4341  -1.5956   0.0000   0.4548
   1.500   1.3658   0.02391   0.01460  -0.2734  0.4923  0.4666  -1.6672   0.0000   0.4456
   2.000   1.4254   0.02471   0.01555  -0.2742  0.4848  0.5109  -1.7297   0.0000   0.4370
   2.500   1.4804   0.02545   0.01646  -0.2740  0.4765  0.5803  -1.7900   0.0000   0.4288
   3.000   1.5328   0.02608   0.01727  -0.2730  0.4676  0.6961  -1.8503   0.0000   0.4210
   3.500   1.5705   0.02652   0.01789  -0.2690  0.4609  1.0000  -1.9060   0.0000   0.4133
   4.000   1.6303   0.02892   0.02010  -0.2705  0.4531  1.0000  -1.9762   0.0000   0.4071
   4.500   1.6780   0.03016   0.02154  -0.2691  0.4485  1.0000  -2.0423   0.0000   0.4007
   5.000   1.7237   0.03165   0.02314  -0.2674  0.4425  1.0000  -2.1104   0.0000   0.3947
   5.500   1.7683   0.03302   0.02458  -0.2655  0.4347  1.0000  -2.1860   0.0000   0.3887
   6.000   1.8152   0.03451   0.02608  -0.2640  0.4283  1.0000  -2.2737   0.0000   0.3831
   6.500   1.8656   0.03633   0.02785  -0.2633  0.4216  1.0000  -2.3689   0.0000   0.3779
   7.000   1.9006   0.03922   0.03095  -0.2603  0.4145  1.0000  -2.4502   0.0000   0.3728
   7.500   1.9286   0.04122   0.03346  -0.2556  0.4082  1.0000  -2.5364   0.0000   0.3675
   8.000   1.9572   0.04306   0.03554  -0.2510  0.4000  1.0000  -2.6366   0.0000   0.3623
   8.500   1.9935   0.04443   0.03702  -0.2477  0.3922  1.0000  -2.7890   0.0000   0.3573
   9.000   2.0465   0.04628   0.03878  -0.2477  0.3838  1.0000  -2.9741   0.0000   0.3529
   9.500   2.0449   0.04980   0.04277  -0.2387  0.3771  1.0000  -3.0590   0.0000   0.3477
  10.000   2.0271   0.05308   0.04646  -0.2271  0.3689  1.0000  -3.1163   0.0000   0.3421
  10.500   2.0294   0.05515   0.04874  -0.2188  0.3601  1.0000  -3.2147   0.0000   0.3368
  11.000   2.1223   0.05347   0.04695  -0.2238  0.3498  1.0000  -3.4926   0.0000   0.3332


