XFLR5 v6.09.05 beta

 Calculated polar for: S1223

 1 1 Reynolds number fixed          Mach number fixed         

 xtrf =   1.000 (top)        1.000 (bottom)
 Mach =   0.000     Re =     0.320 e 6     Ncrit =   9.000

  alpha     CL        CD       CDp       Cm    Top Xtr Bot Xtr   Cpmin    Chinge    XCp    
 ------- -------- --------- --------- -------- ------- ------- -------- --------- ---------
 -14.500  -0.2925   0.19342   0.19035  -0.0181  1.0000  0.0170  -1.1701   0.0000   0.1670
 -14.000  -0.2822   0.18870   0.18564  -0.0187  1.0000  0.0170  -1.1740   0.0000   0.1628
 -13.500  -0.2724   0.18405   0.18102  -0.0191  1.0000  0.0170  -1.1787   0.0000   0.1591
 -13.000  -0.2631   0.17947   0.17648  -0.0194  1.0000  0.0170  -1.1836   0.0000   0.1559
 -12.500  -0.2544   0.17498   0.17203  -0.0194  1.0000  0.0170  -1.1893   0.0000   0.1533
 -12.000  -0.2465   0.17061   0.16771  -0.0193  1.0000  0.0171  -1.1961   0.0000   0.1515
 -11.500  -0.2395   0.16638   0.16353  -0.0191  1.0000  0.0171  -1.2039   0.0000   0.1508
 -11.000  -0.1915   0.15820   0.15531  -0.0304  0.9946  0.0171  -1.1924   0.0000   0.0660
 -10.500  -0.1508   0.15056   0.14766  -0.0394  0.9891  0.0171  -1.1850   0.0000  -0.0435
 -10.000  -0.1178   0.14360   0.14067  -0.0460  0.9835  0.0171  -1.1814   0.0000  -0.1817
  -9.500  -0.0852   0.13683   0.13390  -0.0524  0.9785  0.0171  -1.1791   0.0000  -0.4203
  -9.000  -0.0519   0.13003   0.12711  -0.0589  0.9729  0.0172  -1.1770   0.0000  -0.9744
  -8.500  -0.0215   0.12343   0.12052  -0.0643  0.9655  0.0172  -1.1767   0.0000  -2.9542
  -7.500   0.0364   0.10619   0.10333  -0.0756  0.9506  0.0179  -1.3136   0.0000   2.4457
  -7.000   0.0799   0.09850   0.09565  -0.0816  0.9453  0.0186  -1.2111   0.0000   1.3224
  -6.500   0.1061   0.09294   0.09013  -0.0837  0.9315  0.0192  -1.1403   0.0000   1.0738
  -6.000   0.1335   0.08751   0.08471  -0.0864  0.9163  0.0199  -1.0858   0.0000   0.9226
  -5.500   0.1573   0.08237   0.07960  -0.0883  0.8965  0.0206  -1.0491   0.0000   0.8308
  -5.000   0.1783   0.07744   0.07466  -0.0896  0.8685  0.0215  -1.0258   0.0000   0.7673
  -4.500   0.2415   0.06965   0.06673  -0.1018  0.8334  0.0231  -0.9821   0.0000   0.6821
  -4.000   0.3506   0.05988   0.05632  -0.1266  0.7307  0.0262  -0.9426   0.0000   0.6180
  -3.500   0.3722   0.05627   0.05217  -0.1294  0.6337  0.0283  -0.9915   0.0000   0.6028
  -3.000   0.4100   0.05239   0.04799  -0.1356  0.5809  0.0297  -1.0155   0.0000   0.5843
  -2.500   0.4695   0.04601   0.04138  -0.1476  0.5478  0.0300  -1.0470   0.0000   0.5666
  -2.000   0.7814   0.02098   0.01475  -0.2310  0.5118  0.0260  -1.3673   0.0000   0.5465
  -1.500   0.9287   0.01703   0.00948  -0.2518  0.4863  0.0280  -1.2724   0.0000   0.5213
  -1.000   1.0143   0.01606   0.00814  -0.2582  0.4702  0.0333  -1.3482   0.0000   0.5038
  -0.500   1.0838   0.01621   0.00809  -0.2611  0.4524  0.0430  -1.4148   0.0000   0.4893
   0.000   1.1594   0.01592   0.00764  -0.2649  0.4434  0.0441  -1.4860   0.0000   0.4760
   0.500   1.2360   0.01592   0.00791  -0.2691  0.4331  0.2769  -1.5605   0.0000   0.4644
   1.000   1.2937   0.01655   0.00849  -0.2693  0.4226  0.3287  -1.6277   0.0000   0.4540
   1.500   1.3568   0.01707   0.00899  -0.2706  0.4153  0.3540  -1.6984   0.0000   0.4445
   2.000   1.4142   0.01734   0.00937  -0.2707  0.4104  0.3867  -1.7666   0.0000   0.4356
   2.500   1.4706   0.01771   0.00980  -0.2707  0.4040  0.4330  -1.8347   0.0000   0.4274
   3.000   1.5279   0.01817   0.01034  -0.2708  0.3983  0.5032  -1.9037   0.0000   0.4198
   3.500   1.5874   0.01871   0.01107  -0.2715  0.3922  0.6217  -1.9746   0.0000   0.4127
   4.000   1.6479   0.01941   0.01203  -0.2724  0.3845  0.8385  -2.0465   0.0000   0.4060
   4.500   1.6953   0.01999   0.01273  -0.2705  0.3806  1.0000  -2.1138   0.0000   0.3995
   5.000   1.7449   0.02053   0.01330  -0.2692  0.3775  1.0000  -2.1872   0.0000   0.3933
   5.500   1.7926   0.02113   0.01393  -0.2675  0.3731  1.0000  -2.2650   0.0000   0.3873
   6.000   1.8402   0.02180   0.01463  -0.2658  0.3684  1.0000  -2.3531   0.0000   0.3816
   6.500   1.8842   0.02244   0.01528  -0.2635  0.3630  1.0000  -2.4461   0.0000   0.3760
   7.000   1.9281   0.02319   0.01602  -0.2611  0.3573  1.0000  -2.5415   0.0000   0.3707
   7.500   1.9887   0.02472   0.01764  -0.2627  0.3476  1.0000  -2.6736   0.0000   0.3663
   8.000   2.0223   0.02527   0.01836  -0.2583  0.3449  1.0000  -2.8135   0.0000   0.3610
   8.500   2.0551   0.02595   0.01920  -0.2538  0.3403  1.0000  -2.9649   0.0000   0.3558
   9.000   2.0857   0.02664   0.02000  -0.2490  0.3339  1.0000  -3.1158   0.0000   0.3506
   9.500   2.1153   0.02741   0.02084  -0.2441  0.3272  1.0000  -3.2680   0.0000   0.3456
  10.000   2.1530   0.02879   0.02224  -0.2412  0.3149  1.0000  -3.4361   0.0000   0.3411
  10.500   2.1713   0.02962   0.02333  -0.2344  0.3105  1.0000  -3.5724   0.0000   0.3360
  11.000   2.1944   0.03075   0.02469  -0.2289  0.3039  1.0000  -3.7182   0.0000   0.3312
  11.500   2.2164   0.03205   0.02614  -0.2234  0.2962  1.0000  -3.8778   0.0000   0.3266
  12.000   2.2346   0.03386   0.02799  -0.2177  0.2867  1.0000  -4.0372   0.0000   0.3220
  12.500   2.2539   0.03571   0.03010  -0.2125  0.2790  1.0000  -4.2001   0.0000   0.3177
  13.000   2.2697   0.03776   0.03242  -0.2071  0.2684  1.0000  -4.3571   0.0000   0.3135
  13.500   2.2695   0.04107   0.03575  -0.2004  0.2521  1.0000  -4.4799   0.0000   0.3093
  14.000   2.2641   0.04544   0.04016  -0.1942  0.2294  1.0000  -4.5894   0.0000   0.3055
  14.500   2.2462   0.05164   0.04640  -0.1883  0.2044  1.0000  -4.6656   0.0000   0.3022
  15.000   2.2175   0.06006   0.05487  -0.1836  0.1818  1.0000  -4.7095   0.0000   0.2998
  15.500   2.1813   0.07057   0.06551  -0.1810  0.1640  1.0000  -4.7264   0.0000   0.2985
  16.000   2.1315   0.08408   0.07919  -0.1809  0.1501  1.0000  -4.6963   0.0000   0.2989
  16.500   2.0919   0.09661   0.09196  -0.1822  0.1382  1.0000  -4.6845   0.0000   0.2997
  17.000   2.0396   0.11118   0.10669  -0.1854  0.1278  1.0000  -4.6250   0.0000   0.3020


