XFLR5 v6.09.05 beta

 Calculated polar for: S1223

 1 1 Reynolds number fixed          Mach number fixed         

 xtrf =   1.000 (top)        1.000 (bottom)
 Mach =   0.000     Re =     0.085 e 6     Ncrit =   9.000

  alpha     CL        CD       CDp       Cm    Top Xtr Bot Xtr   Cpmin    Chinge    XCp    
 ------- -------- --------- --------- -------- ------- ------- -------- --------- ---------
 -14.500  -0.2756   0.19347   0.18743  -0.0228  1.0000  0.0445  -0.9847   0.0000   0.1445
 -14.000  -0.2669   0.19077   0.18480  -0.0240  1.0000  0.0450  -1.0059   0.0000   0.1376
 -13.500  -0.2602   0.18856   0.18267  -0.0251  1.0000  0.0454  -1.0312   0.0000   0.1317
 -13.000  -0.2550   0.18649   0.18068  -0.0259  1.0000  0.0457  -1.0579   0.0000   0.1271
 -12.500  -0.2512   0.18438   0.17866  -0.0265  1.0000  0.0459  -1.0856   0.0000   0.1239
 -12.000  -0.2485   0.18213   0.17651  -0.0269  1.0000  0.0460  -1.1148   0.0000   0.1221
 -11.500  -0.2461   0.17955   0.17403  -0.0270  1.0000  0.0461  -1.1423   0.0000   0.1214
 -11.000  -0.2428   0.17636   0.17095  -0.0269  1.0000  0.0462  -1.1648   0.0000   0.1212
 -10.500  -0.2156   0.16031   0.15500  -0.0252  1.0000  0.0475  -1.0910   0.0000   0.1132
 -10.000  -0.1999   0.15256   0.14734  -0.0232  1.0000  0.0490  -1.0163   0.0000   0.1133
  -9.500  -0.1920   0.14791   0.14276  -0.0216  1.0000  0.0504  -0.9818   0.0000   0.1171
  -9.000  -0.1872   0.14404   0.13903  -0.0201  1.0000  0.0520  -0.9625   0.0000   0.1233
  -8.500  -0.1849   0.14062   0.13575  -0.0184  1.0000  0.0537  -0.9530   0.0000   0.1320
  -8.000  -0.1854   0.13760   0.13287  -0.0165  1.0000  0.0555  -0.9510   0.0000   0.1437
  -7.500  -0.1891   0.13504   0.13049  -0.0144  1.0000  0.0573  -0.9560   0.0000   0.1583
  -7.000  -0.1821   0.13209   0.12767  -0.0157  0.9970  0.0598  -0.9619   0.0000   0.1482
  -6.500  -0.1322   0.12881   0.12438  -0.0319  0.9780  0.0641  -1.0090   0.0000  -0.0129
  -6.000  -0.1033   0.12760   0.12321  -0.0447  0.9496  0.0653  -1.0861   0.0000  -0.2100
  -5.500  -0.0402   0.11204   0.10768  -0.0513  0.9337  0.0683  -0.9873   0.0000  -1.0942
  -5.000   0.0190   0.10292   0.09854  -0.0578  0.9124  0.0742  -0.8667   0.0000   3.4226
  -4.500   0.0617   0.09657   0.09220  -0.0653  0.8864  0.0814  -0.8427   0.0000   1.3454
  -4.000   0.1096   0.09420   0.08983  -0.0850  0.8413  0.0876  -0.9517   0.0000   1.0438
  -3.000   0.2122   0.07401   0.06963  -0.0887  0.7941  0.1051  -0.8445   0.0000   0.6747
  -2.500   0.3004   0.06476   0.06020  -0.1064  0.7622  0.1195  -0.8989   0.0000   0.6077
  -2.000   0.4187   0.05588   0.05091  -0.1296  0.7220  0.1461  -0.9713   0.0000   0.5613
  -1.500   0.5460   0.04826   0.04276  -0.1517  0.6809  0.1787  -1.0560   0.0000   0.5284
  -1.000   0.7054   0.04187   0.03574  -0.1826  0.6439  0.2432  -1.1556   0.0000   0.5085
  -0.500   1.0989   0.02339   0.01383  -0.2669  0.6046  0.1095  -1.3805   0.0000   0.4917
   0.000   1.1509   0.02523   0.01654  -0.2646  0.5857  0.4027  -1.4312   0.0000   0.4780
   0.500   1.2126   0.02608   0.01706  -0.2652  0.5684  0.4597  -1.4958   0.0000   0.4660
   1.000   1.2735   0.02700   0.01784  -0.2665  0.5540  0.4946  -1.5562   0.0000   0.4557
   1.500   1.3360   0.02775   0.01850  -0.2680  0.5417  0.5292  -1.6184   0.0000   0.4463
   2.000   1.4017   0.02894   0.01955  -0.2702  0.5312  0.5823  -1.6845   0.0000   0.4376
   2.500   1.4528   0.03047   0.02123  -0.2696  0.5228  0.6551  -1.7353   0.0000   0.4296
   3.000   1.4911   0.03142   0.02257  -0.2661  0.5135  0.7823  -1.7828   0.0000   0.4216
   3.500   1.5349   0.03250   0.02360  -0.2642  0.5041  1.0000  -1.8382   0.0000   0.4146
   4.000   1.5916   0.03449   0.02535  -0.2649  0.4964  1.0000  -1.9054   0.0000   0.4080
   4.500   1.6387   0.03780   0.02859  -0.2643  0.4893  1.0000  -1.9695   0.0000   0.4020
   5.000   1.6679   0.04040   0.03160  -0.2603  0.4834  1.0000  -2.0150   0.0000   0.3960
   5.500   1.6944   0.04323   0.03465  -0.2559  0.4747  1.0000  -2.0670   0.0000   0.3902
   6.000   1.7263   0.04603   0.03756  -0.2524  0.4666  1.0000  -2.1320   0.0000   0.3845
   6.500   1.7633   0.04889   0.04047  -0.2498  0.4599  1.0000  -2.2067   0.0000   0.3791
   7.000   1.7886   0.05372   0.04539  -0.2462  0.4519  1.0000  -2.2687   0.0000   0.3741
   8.500   1.4512   0.10436   0.09763  -0.2091  0.4189  1.0000  -1.8574   0.0000   0.3786


