XFLR5 v6.09.05 beta

 Calculated polar for: S1223

 1 1 Reynolds number fixed          Mach number fixed         

 xtrf =   1.000 (top)        1.000 (bottom)
 Mach =   0.000     Re =     0.020 e 6     Ncrit =   9.000

  alpha     CL        CD       CDp       Cm    Top Xtr Bot Xtr   Cpmin    Chinge    XCp    
 ------- -------- --------- --------- -------- ------- ------- -------- --------- ---------
 -15.000  -0.2833   0.20931   0.19702  -0.0234  1.0000  0.1928  -0.8495   0.0000   0.1436
 -14.500  -0.2789   0.20957   0.19736  -0.0245  1.0000  0.1992  -0.8651   0.0000   0.1392
 -14.000  -0.2859   0.21597   0.20396  -0.0252  1.0000  0.2019  -0.9044   0.0000   0.1404
 -13.500  -0.2658   0.20309   0.19125  -0.0259  1.0000  0.2055  -0.8845   0.0000   0.1303
 -13.000  -0.2397   0.19025   0.17847  -0.0255  1.0000  0.2145  -0.8394   0.0000   0.1194
 -12.500  -0.2279   0.18545   0.17382  -0.0254  1.0000  0.2242  -0.8295   0.0000   0.1141
 -12.000  -0.2258   0.18509   0.17366  -0.0254  1.0000  0.2335  -0.8425   0.0000   0.1139
 -11.500  -0.2408   0.19236   0.18120  -0.0248  1.0000  0.2375  -0.8875   0.0000   0.1258
 -11.000  -0.2111   0.17585   0.16485  -0.0249  1.0000  0.2443  -0.8469   0.0000   0.1089
 -10.500  -0.1923   0.16780   0.15694  -0.0238  1.0000  0.2564  -0.8180   0.0000   0.1015
 -10.000  -0.1899   0.16596   0.15525  -0.0228  1.0000  0.2688  -0.8231   0.0000   0.1063
  -9.500  -0.2111   0.17283   0.16245  -0.0208  1.0000  0.2754  -0.8676   0.0000   0.1312
  -9.000  -0.1852   0.15898   0.14880  -0.0203  1.0000  0.2836  -0.8348   0.0000   0.1181
  -8.500  -0.1696   0.15207   0.14209  -0.0185  1.0000  0.2990  -0.8099   0.0000   0.1180
  -8.000  -0.1819   0.15372   0.14405  -0.0159  1.0000  0.3129  -0.8308   0.0000   0.1428
  -7.500  -0.2222   0.16304   0.15383  -0.0111  1.0000  0.3171  -0.8873   0.0000   0.1848
  -7.000  -0.1684   0.14205   0.13295  -0.0114  1.0000  0.3364  -0.8123   0.0000   0.1629
  -6.500  -0.1840   0.14290   0.13417  -0.0075  1.0000  0.3539  -0.8280   0.0000   0.1929
  -6.000  -0.2338   0.15158   0.14335  -0.0009  1.0000  0.3595  -0.8830   0.0000   0.2341
  -5.500  -0.1909   0.13528   0.12725  -0.0004  1.0000  0.3873  -0.8218   0.0000   0.2337
  -5.000  -0.2329   0.14037   0.13279   0.0058  1.0000  0.4011  -0.8590   0.0000   0.2640
  -4.500  -0.2900   0.14834   0.14120   0.0127  1.0000  0.4045  -0.9125   0.0000   0.2853
  -4.000  -0.2565   0.13519   0.12826   0.0136  1.0000  0.4421  -0.8598   0.0000   0.2935
  -3.500  -0.3139   0.14283   0.13625   0.0202  1.0000  0.4499  -0.9124   0.0000   0.3067
  -3.000  -0.2944   0.13365   0.12726   0.0221  1.0000  0.4908  -0.8780   0.0000   0.3170
  -2.500  -0.2921   0.12903   0.12275   0.0248  1.0000  0.5295  -0.8649   0.0000   0.3270
  -1.500  -0.3169   0.12580   0.11993   0.0354  1.0000  0.6375  -0.8679   0.0000   0.3549
  -1.000  -0.0323   0.10372   0.09748  -0.0073  1.0000  1.0000  -0.6956   0.0000  -0.0264
  -0.500  -0.0390   0.10329   0.09720  -0.0063  1.0000  1.0000  -0.7075   0.0000   0.0479
   0.000  -0.0447   0.10260   0.09665  -0.0054  1.0000  1.0000  -0.7191   0.0000   0.0961
   0.500  -0.0500   0.10170   0.09587  -0.0046  1.0000  1.0000  -0.7307   0.0000   0.1312
   1.000  -0.0548   0.10061   0.09490  -0.0037  1.0000  1.0000  -0.7419   0.0000   0.1590
   1.500  -0.0594   0.09934   0.09374  -0.0029  1.0000  1.0000  -0.7526   0.0000   0.1822
   2.000  -0.1023   0.09755   0.09213   0.0071  1.0000  0.9856  -0.7805   0.0000   0.3083
   2.500  -0.1702   0.09555   0.09033   0.0224  1.0000  0.9576  -0.8226   0.0000   0.3742
   3.000  -0.2441   0.09330   0.08830   0.0382  1.0000  0.9262  -0.8707   0.0000   0.4005
   3.500  -0.3165   0.09112   0.08632   0.0521  1.0000  0.8903  -0.9218   0.0000   0.4092
   4.000   0.3070   0.10446   0.09719  -0.1388  1.0000  0.3267  -0.7651   0.0000   0.6986
   4.500   0.4350   0.11118   0.10336  -0.1624  1.0000  0.3825  -0.7872   0.0000   0.6182
   5.000   0.5124   0.11694   0.10932  -0.1661  1.0000  0.6922  -0.8989   0.0000   0.5676
   5.500   0.5479   0.11777   0.11008  -0.1674  1.0000  1.0000  -0.8858   0.0000   0.5481
   6.000   0.6725   0.13227   0.12298  -0.1955  1.0000  1.0000  -0.7620   0.0000   0.5323
   6.500   0.7267   0.14084   0.13064  -0.2046  1.0000  1.0000  -0.7906   0.0000   0.5223
   7.000   0.7648   0.14780   0.13699  -0.2094  0.9974  1.0000  -0.8116   0.0000   0.5136
   7.500   0.8079   0.15487   0.14361  -0.2149  0.9822  1.0000  -0.8425   0.0000   0.5049
   8.000   0.8393   0.16013   0.14858  -0.2182  0.9663  1.0000  -0.8624   0.0000   0.4980
   8.500   0.8773   0.16729   0.15550  -0.2225  0.9462  1.0000  -0.8891   0.0000   0.4907
   9.000   0.9075   0.17254   0.16064  -0.2252  0.9221  1.0000  -0.9155   0.0000   0.4844
   9.500   0.9362   0.17770   0.16568  -0.2277  0.8980  1.0000  -0.9389   0.0000   0.4786
  10.000   0.9651   0.18374   0.17163  -0.2303  0.8752  1.0000  -0.9663   0.0000   0.4731
  10.500   0.9939   0.18939   0.17724  -0.2327  0.8469  1.0000  -0.9975   0.0000   0.4676
  11.000   1.0211   0.19543   0.18327  -0.2349  0.8208  1.0000  -1.0247   0.0000   0.4627
  11.500   1.0510   0.20418   0.19204  -0.2377  0.7993  1.0000  -1.0622   0.0000   0.4579
  12.000   1.0827   0.21386   0.20177  -0.2404  0.7715  1.0000  -1.1028   0.0000   0.4528
  12.500   1.1195   0.22700   0.21520  -0.2435  0.7419  1.0000  -1.1565   0.0000   0.4474
  13.000   1.1196   0.22251   0.21078  -0.2427  0.7175  1.0000  -1.1655   0.0000   0.4456
  13.500   1.1359   0.22862   0.21699  -0.2440  0.6940  1.0000  -1.1918   0.0000   0.4427
  14.000   1.1638   0.24033   0.22881  -0.2463  0.6694  1.0000  -1.2422   0.0000   0.4385
  14.500   1.1855   0.24812   0.23677  -0.2478  0.6426  1.0000  -1.2855   0.0000   0.4350
  15.000   1.1894   0.25134   0.24012  -0.2486  0.6204  1.0000  -1.2954   0.0000   0.4339
  15.500   1.2162   0.26557   0.25451  -0.2507  0.5982  1.0000  -1.3380   0.0000   0.4300
  16.000   1.2254   0.26992   0.25906  -0.2517  0.5729  1.0000  -1.3489   0.0000   0.4282
  16.500   1.2337   0.27845   0.26774  -0.2533  0.5559  1.0000  -1.3501   0.0000   0.4269
  17.000   1.2762   0.30240   0.29236  -0.2553  0.5280  1.0000  -1.4246   0.0000   0.4207
  17.500   1.2521   0.29525   0.28531  -0.2560  0.5132  1.0000  -1.3757   0.0000   0.4238
  18.000   1.2890   0.31711   0.30746  -0.2577  0.4917  1.0000  -1.4402   0.0000   0.4182
  18.500   1.2663   0.31413   0.30459  -0.2582  0.4742  1.0000  -1.3851   0.0000   0.4210
  19.000   1.2990   0.33454   0.32529  -0.2596  0.4553  1.0000  -1.4345   0.0000   0.4158
  19.500   1.2766   0.33640   0.32729  -0.2601  0.4466  1.0000  -1.3696   0.0000   0.4184
  20.000   1.2745   0.34466   0.33582  -0.2597  0.4265  1.0000  -1.3661   0.0000   0.4173
  20.500   1.2842   0.36083   0.35219  -0.2603  0.4147  1.0000  -1.3859   0.0000   0.4149
  21.000   1.1496   0.34306   0.33516  -0.2366  0.3894  1.0000  -1.1578   0.0000   0.4181
  21.500   1.2504   0.37810   0.37015  -0.2530  0.3834  1.0000  -1.3256   0.0000   0.4125


