XFLR5 v6.09.05 beta

 Calculated polar for: S1223

 1 1 Reynolds number fixed          Mach number fixed         

 xtrf =   1.000 (top)        1.000 (bottom)
 Mach =   0.000     Re =     0.230 e 6     Ncrit =   9.000

  alpha     CL        CD       CDp       Cm    Top Xtr Bot Xtr   Cpmin    Chinge    XCp    
 ------- -------- --------- --------- -------- ------- ------- -------- --------- ---------
 -14.500  -0.2968   0.19658   0.19296  -0.0208  1.0000  0.0173  -1.2832   0.0000   0.1591
 -14.000  -0.2856   0.18707   0.18346  -0.0211  1.0000  0.0176  -1.3342   0.0000   0.1548
 -13.500  -0.2723   0.17995   0.17637  -0.0209  1.0000  0.0179  -1.3032   0.0000   0.1518
 -13.000  -0.2606   0.17421   0.17068  -0.0207  1.0000  0.0181  -1.2695   0.0000   0.1492
 -12.500  -0.2501   0.16914   0.16566  -0.0204  1.0000  0.0184  -1.2382   0.0000   0.1471
 -12.000  -0.2405   0.16445   0.16102  -0.0200  1.0000  0.0186  -1.2105   0.0000   0.1457
 -11.500  -0.2320   0.16005   0.15668  -0.0195  1.0000  0.0189  -1.1866   0.0000   0.1450
 -11.000  -0.2245   0.15588   0.15258  -0.0189  1.0000  0.0192  -1.1666   0.0000   0.1455
 -10.500  -0.2180   0.15188   0.14864  -0.0181  1.0000  0.0195  -1.1505   0.0000   0.1472
 -10.000  -0.1893   0.14596   0.14274  -0.0234  0.9967  0.0200  -1.1185   0.0000   0.1039
  -9.500  -0.1475   0.13889   0.13564  -0.0321  0.9905  0.0206  -1.0807   0.0000   0.0031
  -9.000  -0.1105   0.13218   0.12893  -0.0395  0.9841  0.0213  -1.0513   0.0000  -0.1460
  -8.500  -0.0746   0.12558   0.12234  -0.0464  0.9770  0.0221  -1.0268   0.0000  -0.4283
  -8.000  -0.0339   0.11880   0.11556  -0.0546  0.9712  0.0230  -1.0035   0.0000  -1.4800
  -7.500   0.0000   0.11232   0.10909  -0.0606  0.9611  0.0241  -0.9883   0.0000  4621.0589
  -7.000   0.0334   0.10599   0.10278  -0.0665  0.9500  0.0253  -0.9790   0.0000   2.3488
  -6.500   0.0690   0.09971   0.09652  -0.0728  0.9388  0.0268  -0.9801   0.0000   1.3576
  -6.000   0.1083   0.09391   0.09073  -0.0813  0.9273  0.0286  -1.0168   0.0000   1.0315
  -5.500   0.1306   0.08979   0.08662  -0.0857  0.9076  0.0295  -1.0639   0.0000   0.9292
  -5.000   0.1535   0.08473   0.08159  -0.0882  0.8848  0.0298  -1.0762   0.0000   0.8415
  -4.500   0.1772   0.07916   0.07603  -0.0905  0.8496  0.0299  -1.0885   0.0000   0.7739
  -4.000   0.2321   0.06764   0.06442  -0.1033  0.8139  0.0310  -1.1763   0.0000   0.7037
  -3.500   0.3537   0.05780   0.05403  -0.1241  0.7333  0.0353  -0.9318   0.0000   0.6064
  -3.000   0.4026   0.05311   0.04870  -0.1322  0.6403  0.0392  -0.9668   0.0000   0.5820
  -2.500   0.4858   0.04729   0.04247  -0.1524  0.5891  0.0460  -1.0104   0.0000   0.5659
  -2.000   0.5540   0.03896   0.03385  -0.1662  0.5573  0.0507  -1.0543   0.0000   0.5511
  -0.500   1.0913   0.01747   0.00892  -0.2628  0.4817  0.0497  -1.4122   0.0000   0.4893
   0.000   1.1690   0.01737   0.00855  -0.2671  0.4675  0.0581  -1.4839   0.0000   0.4760
   0.500   1.2459   0.01810   0.00953  -0.2715  0.4532  0.3169  -1.5588   0.0000   0.4647
   1.000   1.3002   0.01850   0.01003  -0.2708  0.4471  0.3589  -1.6229   0.0000   0.4542
   1.500   1.3609   0.01881   0.01036  -0.2716  0.4395  0.3873  -1.6914   0.0000   0.4447
   2.000   1.4207   0.01925   0.01082  -0.2723  0.4321  0.4230  -1.7602   0.0000   0.4360
   2.500   1.4821   0.01993   0.01146  -0.2734  0.4234  0.4781  -1.8308   0.0000   0.4279
   3.000   1.5481   0.02086   0.01254  -0.2756  0.4159  0.5728  -1.9029   0.0000   0.4206
   3.500   1.6018   0.02125   0.01329  -0.2749  0.4118  0.7245  -1.9674   0.0000   0.4133
   4.000   1.6387   0.02145   0.01374  -0.2706  0.4072  1.0000  -2.0244   0.0000   0.4060
   4.500   1.6925   0.02224   0.01456  -0.2702  0.4019  1.0000  -2.0969   0.0000   0.3996
   5.000   1.7449   0.02304   0.01531  -0.2695  0.3965  1.0000  -2.1745   0.0000   0.3936
   5.500   1.7961   0.02389   0.01607  -0.2687  0.3903  1.0000  -2.2559   0.0000   0.3878
   6.000   1.8556   0.02577   0.01791  -0.2699  0.3826  1.0000  -2.3553   0.0000   0.3827
   6.500   1.9003   0.02648   0.01875  -0.2678  0.3789  1.0000  -2.4478   0.0000   0.3772
   7.000   1.9428   0.02727   0.01968  -0.2652  0.3741  1.0000  -2.5430   0.0000   0.3719
   7.500   1.9837   0.02801   0.02069  -0.2623  0.3676  1.0000  -2.6540   0.0000   0.3666
   8.000   2.0247   0.02871   0.02144  -0.2595  0.3610  1.0000  -2.8035   0.0000   0.3615
   8.500   2.0676   0.02965   0.02240  -0.2572  0.3549  1.0000  -2.9719   0.0000   0.3567
   9.000   2.1129   0.03149   0.02433  -0.2559  0.3465  1.0000  -3.1456   0.0000   0.3524
   9.500   2.1336   0.03216   0.02526  -0.2491  0.3412  1.0000  -3.2812   0.0000   0.3470
  10.000   2.1529   0.03299   0.02639  -0.2423  0.3340  1.0000  -3.4163   0.0000   0.3418
  10.500   2.1731   0.03354   0.02699  -0.2357  0.3254  1.0000  -3.5574   0.0000   0.3366
  11.000   2.2053   0.03495   0.02838  -0.2319  0.3143  1.0000  -3.7206   0.0000   0.3322
  11.500   2.2107   0.03635   0.03014  -0.2234  0.3089  1.0000  -3.8437   0.0000   0.3270
  12.000   2.2212   0.03799   0.03206  -0.2162  0.3008  1.0000  -3.9857   0.0000   0.3221
  12.500   2.2333   0.03968   0.03388  -0.2097  0.2921  1.0000  -4.1333   0.0000   0.3175
  13.000   2.2456   0.04196   0.03625  -0.2039  0.2821  1.0000  -4.2815   0.0000   0.3132
  13.500   2.2442   0.04496   0.03971  -0.1969  0.2730  1.0000  -4.3980   0.0000   0.3089
  14.000   2.2424   0.04827   0.04318  -0.1907  0.2609  1.0000  -4.5147   0.0000   0.3049
  14.500   2.2352   0.05294   0.04805  -0.1852  0.2479  1.0000  -4.6148   0.0000   0.3014
  15.000   2.2190   0.05917   0.05442  -0.1806  0.2313  1.0000  -4.6911   0.0000   0.2986
  15.500   2.1941   0.06745   0.06290  -0.1774  0.2136  1.0000  -4.7390   0.0000   0.2966
  16.000   2.1527   0.07875   0.07429  -0.1760  0.1962  1.0000  -4.7362   0.0000   0.2960
  16.500   2.1076   0.09154   0.08725  -0.1769  0.1801  1.0000  -4.7117   0.0000   0.2967


