XFLR5 v6.09.05 beta

 Calculated polar for: S1223

 1 1 Reynolds number fixed          Mach number fixed         

 xtrf =   1.000 (top)        1.000 (bottom)
 Mach =   0.000     Re =     0.060 e 6     Ncrit =   9.000

  alpha     CL        CD       CDp       Cm    Top Xtr Bot Xtr   Cpmin    Chinge    XCp    
 ------- -------- --------- --------- -------- ------- ------- -------- --------- ---------
 -14.500  -0.2712   0.19314   0.18597  -0.0233  1.0000  0.0601  -0.9170   0.0000   0.1407
 -14.000  -0.2606   0.18913   0.18204  -0.0243  1.0000  0.0618  -0.9237   0.0000   0.1336
 -13.500  -0.2520   0.18631   0.17930  -0.0254  1.0000  0.0633  -0.9425   0.0000   0.1264
 -13.000  -0.2474   0.18539   0.17848  -0.0265  1.0000  0.0644  -0.9766   0.0000   0.1206
 -12.500  -0.2465   0.18538   0.17859  -0.0274  1.0000  0.0649  -1.0169   0.0000   0.1177
 -12.000  -0.2476   0.18521   0.17854  -0.0280  1.0000  0.0652  -1.0578   0.0000   0.1171
 -11.500  -0.2500   0.18464   0.17811  -0.0283  1.0000  0.0655  -1.0987   0.0000   0.1184
 -11.000  -0.2241   0.16944   0.16302  -0.0274  1.0000  0.0667  -1.0450   0.0000   0.1078
 -10.500  -0.2013   0.15867   0.15233  -0.0253  1.0000  0.0693  -0.9553   0.0000   0.1026
 -10.000  -0.1915   0.15366   0.14744  -0.0240  1.0000  0.0717  -0.9234   0.0000   0.1031
  -9.500  -0.1850   0.14961   0.14349  -0.0227  1.0000  0.0744  -0.9084   0.0000   0.1058
  -9.000  -0.1810   0.14605   0.14007  -0.0215  1.0000  0.0774  -0.9033   0.0000   0.1110
  -8.500  -0.1798   0.14302   0.13720  -0.0201  1.0000  0.0805  -0.9079   0.0000   0.1191
  -8.000  -0.1835   0.14114   0.13551  -0.0187  1.0000  0.0837  -0.9282   0.0000   0.1309
  -7.500  -0.1984   0.14215   0.13673  -0.0171  1.0000  0.0860  -0.9789   0.0000   0.1491
  -7.000  -0.2238   0.14474   0.13959  -0.0147  1.0000  0.0869  -1.0412   0.0000   0.1725
  -6.500  -0.2546   0.14717   0.14231  -0.0111  1.0000  0.0873  -1.0975   0.0000   0.1965
  -6.000  -0.1870   0.13202   0.12721  -0.0205  0.9871  0.0907  -1.0083   0.0000   0.1265
  -5.500  -0.1121   0.12172   0.11688  -0.0317  0.9624  0.0994  -0.8897   0.0000  -0.0562
  -5.000  -0.0671   0.11738   0.11255  -0.0440  0.9293  0.1093  -0.8927   0.0000  -0.4431
  -4.500  -0.0296   0.11593   0.11116  -0.0630  0.8869  0.1134  -0.9881   0.0000  -1.9588
  -4.000   0.0303   0.10131   0.09647  -0.0592  0.8648  0.1238  -0.8117   0.0000   2.2768
  -3.500   0.0809   0.10064   0.09577  -0.0796  0.8212  0.1396  -0.8693   0.0000   1.2584
  -3.000   0.1328   0.08694   0.08209  -0.0764  0.8071  0.1486  -0.7762   0.0000   0.8380
  -2.000   0.2410   0.07374   0.06880  -0.0904  0.7536  0.1835  -0.8487   0.0000   0.6296
  -1.000   0.6837   0.04359   0.03720  -0.1880  0.7110  0.1669  -1.1071   0.0000   0.5248
   0.500   1.1423   0.03092   0.02241  -0.2525  0.6335  0.5079  -1.4216   0.0000   0.4687
   1.000   1.2047   0.03189   0.02312  -0.2545  0.6147  0.5525  -1.4786   0.0000   0.4581
   1.500   1.2841   0.03311   0.02387  -0.2596  0.5994  0.5968  -1.5508   0.0000   0.4482
   2.000   1.3246   0.03496   0.02587  -0.2578  0.5873  0.6439  -1.5874   0.0000   0.4399
   2.500   1.3682   0.03660   0.02769  -0.2560  0.5764  0.7141  -1.6294   0.0000   0.4316
   3.000   1.4089   0.03786   0.02905  -0.2531  0.5676  0.8586  -1.6793   0.0000   0.4233
   3.500   1.4513   0.04174   0.03284  -0.2543  0.5568  1.0000  -1.7189   0.0000   0.4181
   4.000   1.4644   0.04642   0.03760  -0.2495  0.5465  1.0000  -1.7362   0.0000   0.4125
   4.500   1.4845   0.05107   0.04226  -0.2457  0.5383  1.0000  -1.7661   0.0000   0.4069
   5.000   1.5232   0.05518   0.04627  -0.2443  0.5311  1.0000  -1.8169   0.0000   0.4010
   5.500   1.0567   0.11156   0.10492  -0.2247  0.5554  1.0000  -1.1780   0.0000   0.4542
   6.000   1.1324   0.11987   0.11279  -0.2299  0.5636  1.0000  -1.2517   0.0000   0.4438
   6.500   1.0013   0.13565   0.12922  -0.2312  0.6120  1.0000  -1.0482   0.0000   0.4716
   7.000   1.0850   0.14495   0.13812  -0.2356  0.6037  1.0000  -1.1427   0.0000   0.4569
   7.500   1.0458   0.14704   0.14028  -0.2314  0.5770  1.0000  -1.0896   0.0000   0.4602


