XFLR5 v6.09.05 beta

 Calculated polar for: S1223

 1 1 Reynolds number fixed          Mach number fixed         

 xtrf =   1.000 (top)        1.000 (bottom)
 Mach =   0.000     Re =     0.325 e 6     Ncrit =   9.000

  alpha     CL        CD       CDp       Cm    Top Xtr Bot Xtr   Cpmin    Chinge    XCp    
 ------- -------- --------- --------- -------- ------- ------- -------- --------- ---------
 -15.000  -0.3032   0.19800   0.19492  -0.0173  1.0000  0.0170  -1.1632   0.0000   0.1718
 -14.500  -0.2924   0.19323   0.19018  -0.0180  1.0000  0.0170  -1.1663   0.0000   0.1674
 -14.000  -0.2820   0.18852   0.18548  -0.0186  1.0000  0.0170  -1.1702   0.0000   0.1632
 -13.500  -0.2722   0.18390   0.18090  -0.0190  1.0000  0.0170  -1.1751   0.0000   0.1595
 -13.000  -0.2630   0.17934   0.17638  -0.0192  1.0000  0.0170  -1.1804   0.0000   0.1563
 -12.500  -0.2543   0.17485   0.17193  -0.0193  1.0000  0.0170  -1.1860   0.0000   0.1537
 -12.000  -0.2465   0.17049   0.16762  -0.0192  1.0000  0.0171  -1.1927   0.0000   0.1520
  -8.500  -0.0189   0.12308   0.12019  -0.0648  0.9652  0.0172  -1.1720   0.0000  -3.4203
  -7.500   0.0404   0.10678   0.10393  -0.0764  0.9502  0.0176  -1.2969   0.0000   2.2442
  -7.000   0.0813   0.09826   0.09542  -0.0828  0.9451  0.0184  -1.2442   0.0000   1.3177
  -6.500   0.1074   0.09262   0.08982  -0.0844  0.9312  0.0190  -1.1657   0.0000   1.0714
  -6.000   0.1345   0.08721   0.08442  -0.0869  0.9158  0.0196  -1.1050   0.0000   0.9217
  -5.500   0.1576   0.08214   0.07938  -0.0885  0.8956  0.0204  -1.0640   0.0000   0.8310
  -5.000   0.1800   0.07713   0.07438  -0.0901  0.8677  0.0212  -1.0359   0.0000   0.7655
  -4.500   0.2462   0.06920   0.06629  -0.1031  0.8313  0.0227  -0.9856   0.0000   0.6790
  -4.000   0.3519   0.05976   0.05618  -0.1268  0.7238  0.0256  -0.9404   0.0000   0.6173
  -3.500   0.3688   0.05627   0.05217  -0.1281  0.6305  0.0275  -0.9772   0.0000   0.6026
  -3.000   0.4072   0.05236   0.04797  -0.1348  0.5787  0.0296  -1.0145   0.0000   0.5846
  -2.500   0.4673   0.04612   0.04150  -0.1469  0.5460  0.0300  -1.0429   0.0000   0.5665
  -1.500   0.9298   0.01691   0.00939  -0.2521  0.4853  0.0278  -1.2733   0.0000   0.5212
  -1.000   1.0139   0.01603   0.00812  -0.2581  0.4689  0.0329  -1.3482   0.0000   0.5038
  -0.500   1.0839   0.01612   0.00803  -0.2611  0.4518  0.0427  -1.4152   0.0000   0.4892
   0.000   1.1595   0.01584   0.00759  -0.2649  0.4425  0.0437  -1.4864   0.0000   0.4759
   0.500   1.2362   0.01584   0.00785  -0.2692  0.4320  0.2761  -1.5609   0.0000   0.4644
   1.000   1.2946   0.01652   0.00846  -0.2695  0.4209  0.3269  -1.6285   0.0000   0.4540
   1.500   1.3558   0.01696   0.00891  -0.2704  0.4148  0.3528  -1.6982   0.0000   0.4445
   2.000   1.4134   0.01724   0.00929  -0.2705  0.4096  0.3850  -1.7665   0.0000   0.4356
   2.500   1.4698   0.01761   0.00972  -0.2705  0.4032  0.4310  -1.8347   0.0000   0.4274
   3.000   1.5269   0.01808   0.01026  -0.2706  0.3974  0.4997  -1.9035   0.0000   0.4197
   3.500   1.5868   0.01864   0.01100  -0.2714  0.3911  0.6174  -1.9748   0.0000   0.4127
   4.000   1.6516   0.01948   0.01211  -0.2732  0.3828  0.8316  -2.0494   0.0000   0.4062
   5.000   1.7438   0.02039   0.01319  -0.2690  0.3769  1.0000  -2.1869   0.0000   0.3932
   5.500   1.7912   0.02098   0.01382  -0.2672  0.3724  1.0000  -2.2644   0.0000   0.3872
   6.000   1.8389   0.02165   0.01451  -0.2655  0.3677  1.0000  -2.3523   0.0000   0.3816
   6.500   1.8829   0.02230   0.01515  -0.2632  0.3623  1.0000  -2.4453   0.0000   0.3760
   7.000   1.9276   0.02308   0.01592  -0.2610  0.3564  1.0000  -2.5414   0.0000   0.3707
   7.500   1.9865   0.02452   0.01747  -0.2622  0.3473  1.0000  -2.6714   0.0000   0.3662
   8.000   2.0206   0.02509   0.01821  -0.2579  0.3444  1.0000  -2.8113   0.0000   0.3609
   8.500   2.0539   0.02578   0.01905  -0.2535  0.3397  1.0000  -2.9635   0.0000   0.3557
   9.000   2.0848   0.02647   0.01985  -0.2488  0.3333  1.0000  -3.1151   0.0000   0.3505
   9.500   2.1147   0.02724   0.02068  -0.2439  0.3265  1.0000  -3.2677   0.0000   0.3455
  10.000   2.1516   0.02860   0.02209  -0.2409  0.3146  1.0000  -3.4343   0.0000   0.3410
  10.500   2.1710   0.02945   0.02319  -0.2343  0.3100  1.0000  -3.5726   0.0000   0.3359
  11.000   2.1947   0.03059   0.02454  -0.2289  0.3034  1.0000  -3.7194   0.0000   0.3312
  11.500   2.2169   0.03190   0.02599  -0.2234  0.2956  1.0000  -3.8796   0.0000   0.3266
  12.000   2.2354   0.03375   0.02788  -0.2178  0.2858  1.0000  -4.0397   0.0000   0.3220
  12.500   2.2551   0.03554   0.02994  -0.2127  0.2784  1.0000  -4.2035   0.0000   0.3177
  13.000   2.2708   0.03759   0.03225  -0.2073  0.2675  1.0000  -4.3607   0.0000   0.3135
  13.500   2.2715   0.04087   0.03557  -0.2006  0.2506  1.0000  -4.4854   0.0000   0.3093
  14.000   2.2627   0.04556   0.04025  -0.1942  0.2269  1.0000  -4.5868   0.0000   0.3055
  14.500   2.2438   0.05192   0.04664  -0.1882  0.2016  1.0000  -4.6604   0.0000   0.3023
  15.000   2.2148   0.06044   0.05523  -0.1837  0.1793  1.0000  -4.7033   0.0000   0.2999
  15.500   2.1803   0.07079   0.06572  -0.1812  0.1615  1.0000  -4.7243   0.0000   0.2986
  16.000   2.1308   0.08428   0.07938  -0.1810  0.1480  1.0000  -4.6949   0.0000   0.2990
  16.500   2.0908   0.09691   0.09224  -0.1825  0.1363  1.0000  -4.6818   0.0000   0.2999
  17.000   2.0374   0.11166   0.10717  -0.1857  0.1262  1.0000  -4.6186   0.0000   0.3023


