XFLR5 v6.09.05 beta

 Calculated polar for: S1223

 1 1 Reynolds number fixed          Mach number fixed         

 xtrf =   1.000 (top)        1.000 (bottom)
 Mach =   0.000     Re =     0.030 e 6     Ncrit =   9.000

  alpha     CL        CD       CDp       Cm    Top Xtr Bot Xtr   Cpmin    Chinge    XCp    
 ------- -------- --------- --------- -------- ------- ------- -------- --------- ---------
 -14.500  -0.2702   0.19899   0.18894  -0.0251  1.0000  0.1219  -0.8754   0.0000   0.1337
 -14.000  -0.2578   0.19401   0.18407  -0.0255  1.0000  0.1266  -0.8638   0.0000   0.1272
 -13.500  -0.2475   0.19004   0.18021  -0.0261  1.0000  0.1317  -0.8620   0.0000   0.1206
 -13.000  -0.2419   0.18856   0.17887  -0.0270  1.0000  0.1366  -0.8776   0.0000   0.1153
 -12.500  -0.2469   0.19216   0.18265  -0.0279  1.0000  0.1391  -0.9213   0.0000   0.1158
 -12.000  -0.2584   0.19729   0.18799  -0.0282  1.0000  0.1400  -0.9746   0.0000   0.1216
 -11.500  -0.2154   0.17429   0.16507  -0.0273  1.0000  0.1452  -0.8797   0.0000   0.1005
 -11.000  -0.2005   0.16772   0.15863  -0.0263  1.0000  0.1518  -0.8491   0.0000   0.0952
 -10.500  -0.1925   0.16385   0.15492  -0.0256  1.0000  0.1589  -0.8426   0.0000   0.0934
 -10.000  -0.1934   0.16317   0.15445  -0.0252  1.0000  0.1659  -0.8613   0.0000   0.0978
  -9.500  -0.2116   0.16855   0.16004  -0.0244  1.0000  0.1690  -0.9164   0.0000   0.1163
  -9.000  -0.2365   0.17443   0.16623  -0.0226  1.0000  0.1700  -0.9764   0.0000   0.1394
  -8.500  -0.1766   0.14920   0.14105  -0.0213  1.0000  0.1796  -0.8497   0.0000   0.1090
  -8.000  -0.1721   0.14539   0.13745  -0.0192  1.0000  0.1882  -0.8376   0.0000   0.1188
  -7.500  -0.1807   0.14496   0.13729  -0.0170  1.0000  0.1968  -0.8544   0.0000   0.1384
  -7.000  -0.2128   0.15057   0.14327  -0.0138  1.0000  0.2011  -0.9103   0.0000   0.1716
  -6.500  -0.2554   0.15692   0.15003  -0.0090  1.0000  0.2023  -0.9718   0.0000   0.2046
  -6.000  -0.2051   0.13730   0.13055  -0.0082  1.0000  0.2118  -0.8758   0.0000   0.1974
  -5.500  -0.2169   0.13555   0.12912  -0.0042  1.0000  0.2196  -0.8710   0.0000   0.2195
  -5.000  -0.2434   0.13655   0.13046  -0.0001  1.0000  0.2262  -0.8892   0.0000   0.2400
  -4.500  -0.2791   0.13941   0.13363   0.0038  1.0000  0.2318  -0.9232   0.0000   0.2553
  -4.000  -0.3228   0.14489   0.13939   0.0065  1.0000  0.2358  -0.9791   0.0000   0.2629
  -3.000  -0.2271   0.13241   0.12697  -0.0117  0.9459  0.2700  -0.8992   0.0000   0.1875
  -2.500  -0.2085   0.12940   0.12398  -0.0190  0.9164  0.2819  -0.9062   0.0000   0.1470
  -2.000  -0.1810   0.12358   0.11819  -0.0189  0.8942  0.3018  -0.8602   0.0000   0.1325
  -1.500  -0.1695   0.12473   0.11943  -0.0287  0.8810  0.3209  -0.8849   0.0000   0.0669
  -1.000  -0.1749   0.11936   0.11420  -0.0209  0.8732  0.3330  -0.8582   0.0000   0.1178
  -0.500  -0.1472   0.11973   0.11461  -0.0318  0.8633  0.3639  -0.8601   0.0000   0.0187
   0.000  -0.1192   0.12027   0.11518  -0.0377  0.8523  0.4059  -0.8367   0.0000  -0.0842
   1.000  -0.2346   0.11896   0.11442  -0.0184  0.9842  0.4064  -0.8981   0.0000   0.1623
   1.500  -0.2544   0.11066   0.10629  -0.0049  0.9828  0.4244  -0.8791   0.0000   0.2226
   2.000  -0.2294   0.10899   0.10471  -0.0070  0.9795  0.5048  -0.8488   0.0000   0.2113
   3.000  -0.2586   0.09988   0.09593   0.0204  0.9656  0.6997  -0.8160   0.0000   0.3224
   3.500  -0.2569   0.09568   0.09182   0.0290  0.9588  0.7896  -0.8087   0.0000   0.3568
   4.000  -0.2317   0.09193   0.08812   0.0263  0.9510  0.8266  -0.8026   0.0000   0.3575
   4.500   0.6319   0.12008   0.11330  -0.2006  0.9286  0.5713  -0.8585   0.0000   0.5622
   5.000   0.6403   0.12162   0.11497  -0.1935  0.9176  0.7457  -0.8073   0.0000   0.5458
   5.500   0.6955   0.12780   0.12090  -0.1985  0.9062  0.8972  -0.7834   0.0000   0.5281
   6.000   0.7682   0.13477   0.12723  -0.2131  0.8804  1.0000  -0.8193   0.0000   0.5193
   6.500   0.8439   0.14510   0.13662  -0.2255  0.8581  1.0000  -0.8670   0.0000   0.5082
   7.500   0.9094   0.15522   0.14601  -0.2296  0.8095  1.0000  -0.9197   0.0000   0.4917
   8.000   0.9354   0.15984   0.15042  -0.2304  0.7834  1.0000  -0.9382   0.0000   0.4847
   8.500   0.9621   0.16589   0.15634  -0.2317  0.7646  1.0000  -0.9651   0.0000   0.4783
   9.000   1.0218   0.17923   0.16946  -0.2366  0.7426  1.0000  -1.0265   0.0000   0.4681
   9.500   1.0294   0.17931   0.16952  -0.2350  0.7136  1.0000  -1.0354   0.0000   0.4640
  10.000   1.0400   0.18230   0.17248  -0.2349  0.6918  1.0000  -1.0496   0.0000   0.4606
  10.500   1.1108   0.20341   0.19349  -0.2402  0.6736  1.0000  -1.1332   0.0000   0.4501
  11.000   1.0988   0.19634   0.18651  -0.2375  0.6448  1.0000  -1.1250   0.0000   0.4491
  11.500   1.1092   0.20032   0.19053  -0.2381  0.6251  1.0000  -1.1416   0.0000   0.4466
  12.000   1.1576   0.21520   0.20562  -0.2405  0.6040  1.0000  -1.2161   0.0000   0.4387
  12.500   1.1489   0.21266   0.20314  -0.2403  0.5813  1.0000  -1.2104   0.0000   0.4392
  13.000   1.2016   0.23388   0.22442  -0.2427  0.5637  1.0000  -1.2983   0.0000   0.4311
  13.500   1.1862   0.22675   0.21740  -0.2429  0.5406  1.0000  -1.2841   0.0000   0.4327
  14.000   1.2228   0.24363   0.23439  -0.2446  0.5254  1.0000  -1.3584   0.0000   0.4270
  14.500   1.2226   0.24252   0.23340  -0.2453  0.4992  1.0000  -1.3656   0.0000   0.4265
  15.000   1.2528   0.26010   0.25112  -0.2471  0.4884  1.0000  -1.4188   0.0000   0.4221
  15.500   1.2464   0.25801   0.24917  -0.2484  0.4638  1.0000  -1.4032   0.0000   0.4230
  16.000   1.2715   0.27402   0.26532  -0.2498  0.4509  1.0000  -1.4392   0.0000   0.4191
  16.500   1.2653   0.27476   0.26652  -0.2518  0.4302  1.0000  -1.4161   0.0000   0.4205
  17.000   1.3093   0.29971   0.29169  -0.2523  0.4165  1.0000  -1.5098   0.0000   0.4131
  17.500   1.2810   0.29286   0.28495  -0.2549  0.3969  1.0000  -1.4395   0.0000   0.4181
  18.000   1.3222   0.31421   0.30655  -0.2549  0.3834  1.0000  -1.5230   0.0000   0.4108
  18.500   1.2967   0.31565   0.30808  -0.2578  0.3765  1.0000  -1.4423   0.0000   0.4156
  19.000   1.2989   0.32303   0.31564  -0.2584  0.3561  1.0000  -1.4323   0.0000   0.4145
  19.500   1.3324   0.34657   0.33937  -0.2590  0.3470  1.0000  -1.5003   0.0000   0.4087
  20.000   1.2808   0.34250   0.33549  -0.2587  0.3354  1.0000  -1.3800   0.0000   0.4152


