XFLR5 v6.09.05 beta

 Calculated polar for: S1223

 1 1 Reynolds number fixed          Mach number fixed         

 xtrf =   1.000 (top)        1.000 (bottom)
 Mach =   0.000     Re =     0.290 e 6     Ncrit =   9.000

  alpha     CL        CD       CDp       Cm    Top Xtr Bot Xtr   Cpmin    Chinge    XCp    
 ------- -------- --------- --------- -------- ------- ------- -------- --------- ---------
 -13.000  -0.2638   0.18036   0.17722  -0.0201  1.0000  0.0171  -1.2060   0.0000   0.1532
 -12.500  -0.2551   0.17584   0.17274  -0.0202  1.0000  0.0171  -1.2121   0.0000   0.1505
 -12.000  -0.2472   0.17143   0.16838  -0.0201  1.0000  0.0171  -1.2187   0.0000   0.1487
 -11.500  -0.2401   0.16714   0.16414  -0.0198  1.0000  0.0171  -1.2263   0.0000   0.1478
 -11.000  -0.2184   0.16147   0.15849  -0.0237  0.9981  0.0171  -1.2275   0.0000   0.1204
 -10.500  -0.1718   0.15325   0.15023  -0.0344  0.9916  0.0171  -1.2170   0.0000   0.0222
  -8.500  -0.0375   0.12038   0.11737  -0.0610  0.9713  0.0182  -1.2849   0.0000  -1.4973
  -8.000  -0.0054   0.11357   0.11058  -0.0647  0.9624  0.0187  -1.2004   0.0000  -12.4148
  -7.500   0.0310   0.10707   0.10411  -0.0702  0.9552  0.0193  -1.1274   0.0000   2.6469
  -7.000   0.0683   0.10069   0.09774  -0.0761  0.9465  0.0200  -1.0702   0.0000   1.4231
  -6.500   0.0961   0.09506   0.09215  -0.0796  0.9333  0.0208  -1.0343   0.0000   1.1168
  -5.500   0.1636   0.08302   0.08012  -0.0895  0.9067  0.0228  -0.9807   0.0000   0.8161
  -5.000   0.1697   0.07906   0.07620  -0.0872  0.8739  0.0237  -0.9841   0.0000   0.7795
  -4.500   0.2084   0.07273   0.06980  -0.0934  0.8402  0.0253  -0.9777   0.0000   0.7097
  -4.000   0.3355   0.06214   0.05874  -0.1245  0.7687  0.0294  -1.0016   0.0000   0.6278
  -3.500   0.3906   0.05684   0.05275  -0.1350  0.6562  0.0299  -1.0085   0.0000   0.6007
  -3.000   0.4222   0.05215   0.04769  -0.1397  0.5959  0.0300  -1.0348   0.0000   0.5844
  -2.500   0.4588   0.04438   0.03972  -0.1472  0.5609  0.0330  -1.0622   0.0000   0.5731
  -2.000   0.5258   0.03973   0.03480  -0.1575  0.5311  0.0373  -1.0442   0.0000   0.5507
  -0.500   1.0789   0.01661   0.00839  -0.2600  0.4622  0.0448  -1.4102   0.0000   0.4894
   0.000   1.1603   0.01647   0.00800  -0.2651  0.4491  0.0459  -1.4840   0.0000   0.4760
   0.500   1.2385   0.01637   0.00830  -0.2698  0.4398  0.2915  -1.5598   0.0000   0.4645
   1.000   1.2932   0.01691   0.00883  -0.2692  0.4311  0.3391  -1.6252   0.0000   0.4540
   1.500   1.3563   0.01761   0.00932  -0.2705  0.4211  0.3598  -1.6959   0.0000   0.4445
   2.000   1.4210   0.01808   0.00988  -0.2723  0.4148  0.3973  -1.7681   0.0000   0.4358
   2.500   1.4769   0.01841   0.01032  -0.2721  0.4094  0.4458  -1.8356   0.0000   0.4276
   3.000   1.5355   0.01884   0.01092  -0.2726  0.4038  0.5245  -1.9050   0.0000   0.4200
   3.500   1.5935   0.01931   0.01162  -0.2729  0.3981  0.6500  -1.9745   0.0000   0.4129
   4.000   1.6320   0.01944   0.01208  -0.2688  0.3930  1.0000  -2.0308   0.0000   0.4055
   4.500   1.6919   0.02045   0.01301  -0.2698  0.3863  1.0000  -2.1086   0.0000   0.3994
   5.000   1.7511   0.02156   0.01409  -0.2707  0.3808  1.0000  -2.1887   0.0000   0.3936
   5.500   1.7982   0.02210   0.01470  -0.2689  0.3774  1.0000  -2.2659   0.0000   0.3876
   6.000   1.8462   0.02280   0.01546  -0.2673  0.3732  1.0000  -2.3557   0.0000   0.3820
   6.500   1.8915   0.02346   0.01617  -0.2652  0.3676  1.0000  -2.4495   0.0000   0.3765
   7.000   1.9355   0.02416   0.01689  -0.2629  0.3621  1.0000  -2.5461   0.0000   0.3711
   7.500   1.9770   0.02494   0.01778  -0.2601  0.3555  1.0000  -2.6575   0.0000   0.3659
   8.000   2.0343   0.02656   0.01944  -0.2611  0.3472  1.0000  -2.8295   0.0000   0.3616
   8.500   2.0647   0.02717   0.02025  -0.2561  0.3438  1.0000  -2.9770   0.0000   0.3563
   9.000   2.0916   0.02783   0.02108  -0.2505  0.3380  1.0000  -3.1214   0.0000   0.3510
   9.500   2.1201   0.02858   0.02194  -0.2454  0.3313  1.0000  -3.2713   0.0000   0.3459
  10.000   2.1453   0.02938   0.02284  -0.2397  0.3230  1.0000  -3.4187   0.0000   0.3409
  10.500   2.1759   0.03073   0.02427  -0.2355  0.3132  1.0000  -3.5762   0.0000   0.3363
  11.000   2.1939   0.03185   0.02567  -0.2290  0.3075  1.0000  -3.7127   0.0000   0.3313
  11.500   2.2139   0.03316   0.02719  -0.2231  0.3000  1.0000  -3.8664   0.0000   0.3266
  12.000   2.2316   0.03472   0.02884  -0.2172  0.2916  1.0000  -4.0252   0.0000   0.3220
  12.500   2.2479   0.03683   0.03107  -0.2116  0.2820  1.0000  -4.1815   0.0000   0.3176
  13.000   2.2608   0.03894   0.03357  -0.2059  0.2733  1.0000  -4.3312   0.0000   0.3133
  13.500   2.2664   0.04172   0.03645  -0.1997  0.2606  1.0000  -4.4665   0.0000   0.3092
  14.000   2.2655   0.04551   0.04040  -0.1938  0.2438  1.0000  -4.5857   0.0000   0.3053
  14.500   2.2488   0.05125   0.04615  -0.1877  0.2224  1.0000  -4.6658   0.0000   0.3019
  15.000   2.2204   0.05938   0.05432  -0.1828  0.1994  1.0000  -4.7114   0.0000   0.2994
  15.500   2.1875   0.06923   0.06430  -0.1800  0.1796  1.0000  -4.7381   0.0000   0.2979
  16.000   2.1468   0.08114   0.07639  -0.1793  0.1636  1.0000  -4.7347   0.0000   0.2977
  16.500   2.0926   0.09571   0.09113  -0.1809  0.1508  1.0000  -4.6824   0.0000   0.2991
  17.000   2.0521   0.10840   0.10404  -0.1834  0.1388  1.0000  -4.6590   0.0000   0.3006


