XFLR5 v6.09.05 beta

 Calculated polar for: S1223

 1 1 Reynolds number fixed          Mach number fixed         

 xtrf =   1.000 (top)        1.000 (bottom)
 Mach =   0.000     Re =     0.335 e 6     Ncrit =   9.000

  alpha     CL        CD       CDp       Cm    Top Xtr Bot Xtr   Cpmin    Chinge    XCp    
 ------- -------- --------- --------- -------- ------- ------- -------- --------- ---------
 -13.000  -0.2628   0.17903   0.17611  -0.0190  1.0000  0.0170  -1.1733   0.0000   0.1571
 -12.500  -0.2542   0.17458   0.17171  -0.0191  1.0000  0.0170  -1.1795   0.0000   0.1546
 -12.000  -0.2463   0.17026   0.16743  -0.0190  1.0000  0.0170  -1.1863   0.0000   0.1529
 -10.500  -0.1411   0.14938   0.14652  -0.0417  0.9884  0.0171  -1.1710   0.0000  -0.0810
 -10.000  -0.1086   0.14241   0.13953  -0.0482  0.9825  0.0171  -1.1677   0.0000  -0.2385
  -9.500  -0.0781   0.13577   0.13290  -0.0540  0.9770  0.0171  -1.1661   0.0000  -0.5025
  -8.500  -0.0138   0.12241   0.11955  -0.0659  0.9646  0.0172  -1.1632   0.0000  -4.8391
  -8.000   0.0258   0.11523   0.11237  -0.0737  0.9600  0.0172  -1.1595   0.0000   3.2791
  -7.000   0.0846   0.09809   0.09528  -0.0851  0.9446  0.0180  -1.3027   0.0000   1.3047
  -6.500   0.1094   0.09207   0.08930  -0.0861  0.9305  0.0186  -1.2248   0.0000   1.0718
  -6.000   0.1360   0.08664   0.08388  -0.0880  0.9148  0.0192  -1.1499   0.0000   0.9222
  -5.500   0.1584   0.08165   0.07893  -0.0891  0.8940  0.0199  -1.0984   0.0000   0.8324
  -5.000   0.1835   0.07651   0.07377  -0.0913  0.8663  0.0206  -1.0592   0.0000   0.7621
  -4.500   0.2550   0.06836   0.06545  -0.1055  0.8261  0.0221  -0.9950   0.0000   0.6738
  -4.000   0.3533   0.05959   0.05595  -0.1271  0.7108  0.0247  -0.9418   0.0000   0.6166
  -3.500   0.3652   0.05634   0.05225  -0.1267  0.6236  0.0261  -0.9642   0.0000   0.6023
  -3.000   0.3983   0.05193   0.04756  -0.1327  0.5751  0.0287  -1.0190   0.0000   0.5867
  -2.500   0.4626   0.04630   0.04171  -0.1454  0.5426  0.0299  -1.0359   0.0000   0.5665
  -2.000   0.8141   0.01920   0.01264  -0.2388  0.5054  0.0234  -1.4312   0.0000   0.5444
  -1.500   0.9319   0.01670   0.00922  -0.2525  0.4832  0.0275  -1.2750   0.0000   0.5211
  -1.000   1.0126   0.01599   0.00812  -0.2578  0.4664  0.0322  -1.3480   0.0000   0.5038
  -0.500   1.0844   0.01594   0.00791  -0.2612  0.4505  0.0420  -1.4162   0.0000   0.4892
   0.000   1.1598   0.01570   0.00749  -0.2649  0.4405  0.0431  -1.4874   0.0000   0.4759
   0.500   1.2365   0.01571   0.00775  -0.2693  0.4297  0.2744  -1.5619   0.0000   0.4644
   1.000   1.2976   0.01651   0.00846  -0.2702  0.4173  0.3234  -1.6308   0.0000   0.4541
   1.500   1.3546   0.01675   0.00877  -0.2701  0.4136  0.3504  -1.6982   0.0000   0.4444
   2.000   1.4121   0.01705   0.00915  -0.2702  0.4080  0.3817  -1.7665   0.0000   0.4356
   2.500   1.4684   0.01743   0.00958  -0.2701  0.4015  0.4270  -1.8348   0.0000   0.4273
   3.000   1.5255   0.01791   0.01012  -0.2703  0.3956  0.4956  -1.9037   0.0000   0.4197
   3.500   1.5868   0.01854   0.01090  -0.2714  0.3888  0.6098  -1.9757   0.0000   0.4126
   4.000   1.6534   0.01934   0.01201  -0.2736  0.3815  0.8133  -2.0517   0.0000   0.4062
   5.000   1.7412   0.02012   0.01299  -0.2683  0.3757  1.0000  -2.1856   0.0000   0.3931
   5.500   1.7888   0.02072   0.01360  -0.2666  0.3710  1.0000  -2.2634   0.0000   0.3871
   6.000   1.8365   0.02138   0.01428  -0.2650  0.3662  1.0000  -2.3509   0.0000   0.3814
   6.500   1.8805   0.02203   0.01492  -0.2626  0.3609  1.0000  -2.4440   0.0000   0.3758
   7.000   1.9277   0.02291   0.01576  -0.2610  0.3544  1.0000  -2.5424   0.0000   0.3706
   7.500   1.9822   0.02414   0.01716  -0.2612  0.3467  1.0000  -2.6671   0.0000   0.3660
   8.000   2.0176   0.02476   0.01793  -0.2572  0.3436  1.0000  -2.8074   0.0000   0.3607
   8.500   2.0518   0.02544   0.01876  -0.2530  0.3385  1.0000  -2.9612   0.0000   0.3556
   9.000   2.0834   0.02614   0.01955  -0.2484  0.3321  1.0000  -3.1139   0.0000   0.3504
   9.500   2.1136   0.02695   0.02040  -0.2437  0.3251  1.0000  -3.2672   0.0000   0.3454
  10.000   2.1490   0.02827   0.02180  -0.2403  0.3141  1.0000  -3.4310   0.0000   0.3409
  10.500   2.1707   0.02914   0.02292  -0.2342  0.3090  1.0000  -3.5733   0.0000   0.3359
  11.000   2.1953   0.03027   0.02425  -0.2289  0.3022  1.0000  -3.7220   0.0000   0.3312
  11.500   2.2178   0.03160   0.02570  -0.2236  0.2944  1.0000  -3.8831   0.0000   0.3266
  12.000   2.2379   0.03355   0.02767  -0.2182  0.2836  1.0000  -4.0463   0.0000   0.3221
  12.500   2.2576   0.03519   0.02963  -0.2130  0.2772  1.0000  -4.2106   0.0000   0.3178
  13.000   2.2725   0.03730   0.03195  -0.2076  0.2653  1.0000  -4.3665   0.0000   0.3135
  13.500   2.2746   0.04054   0.03526  -0.2011  0.2470  1.0000  -4.4945   0.0000   0.3094
  14.000   2.2649   0.04538   0.04006  -0.1946  0.2221  1.0000  -4.5938   0.0000   0.3056
  14.500   2.2423   0.05214   0.04681  -0.1884  0.1961  1.0000  -4.6583   0.0000   0.3024
  15.000   2.2094   0.06121   0.05594  -0.1838  0.1743  1.0000  -4.6907   0.0000   0.3001
  15.500   2.1765   0.07147   0.06636  -0.1815  0.1570  1.0000  -4.7154   0.0000   0.2989
  16.000   2.1336   0.08406   0.07915  -0.1813  0.1441  1.0000  -4.7039   0.0000   0.2990
  16.500   2.0875   0.09764   0.09294  -0.1829  0.1330  1.0000  -4.6733   0.0000   0.3002
  17.000   2.0418   0.11121   0.10671  -0.1858  0.1235  1.0000  -4.6332   0.0000   0.3021


