XFLR5 v6.09.05 beta

 Calculated polar for: S1223

 1 1 Reynolds number fixed          Mach number fixed         

 xtrf =   1.000 (top)        1.000 (bottom)
 Mach =   0.000     Re =     0.155 e 6     Ncrit =   9.000

  alpha     CL        CD       CDp       Cm    Top Xtr Bot Xtr   Cpmin    Chinge    XCp    
 ------- -------- --------- --------- -------- ------- ------- -------- --------- ---------
 -15.000  -0.2919   0.19393   0.18945  -0.0188  1.0000  0.0277  -1.0216   0.0000   0.1633
 -14.500  -0.2804   0.18938   0.18491  -0.0197  1.0000  0.0280  -1.0257   0.0000   0.1575
 -14.000  -0.2694   0.18501   0.18059  -0.0204  1.0000  0.0283  -1.0324   0.0000   0.1518
 -13.500  -0.2591   0.18086   0.17649  -0.0211  1.0000  0.0286  -1.0421   0.0000   0.1462
 -13.000  -0.2497   0.17697   0.17266  -0.0217  1.0000  0.0288  -1.0549   0.0000   0.1411
 -12.500  -0.2414   0.17333   0.16908  -0.0221  1.0000  0.0291  -1.0703   0.0000   0.1366
 -12.000  -0.2344   0.16991   0.16573  -0.0224  1.0000  0.0292  -1.0877   0.0000   0.1331
 -11.500  -0.2286   0.16665   0.16253  -0.0225  1.0000  0.0294  -1.1067   0.0000   0.1309
 -11.000  -0.2240   0.16344   0.15940  -0.0223  1.0000  0.0295  -1.1272   0.0000   0.1302
 -10.500  -0.2209   0.16033   0.15637  -0.0220  1.0000  0.0296  -1.1499   0.0000   0.1313
 -10.000  -0.2193   0.15732   0.15345  -0.0213  1.0000  0.0297  -1.1740   0.0000   0.1345
  -9.500  -0.2181   0.15417   0.15040  -0.0204  1.0000  0.0298  -1.1929   0.0000   0.1394
  -9.000  -0.2178   0.15101   0.14731  -0.0191  1.0000  0.0299  -1.2083   0.0000   0.1461
  -8.500  -0.1680   0.14365   0.13993  -0.0309  0.9909  0.0300  -1.2027   0.0000   0.0445
  -8.000  -0.1229   0.13635   0.13261  -0.0410  0.9813  0.0301  -1.1993   0.0000  -0.1134
  -6.000   0.0430   0.10126   0.09764  -0.0646  0.9342  0.0372  -0.9330   0.0000   1.8231
  -5.500   0.0780   0.09504   0.09142  -0.0702  0.9162  0.0397  -0.9149   0.0000   1.1871
  -5.000   0.1071   0.08949   0.08591  -0.0749  0.8942  0.0426  -0.9231   0.0000   0.9736
  -4.500   0.1345   0.08543   0.08188  -0.0827  0.8655  0.0454  -1.0034   0.0000   0.8810
  -4.000   0.1882   0.07852   0.07494  -0.0939  0.8358  0.0462  -1.0260   0.0000   0.7594
  -3.500   0.2349   0.06744   0.06380  -0.0987  0.8027  0.0492  -0.9618   0.0000   0.6773
  -3.000   0.3460   0.05836   0.05427  -0.1178  0.7360  0.0579  -0.9335   0.0000   0.5945
  -2.500   0.4689   0.04842   0.04366  -0.1497  0.6597  0.0687  -0.9981   0.0000   0.5717
  -2.000   0.5256   0.04473   0.03953  -0.1544  0.6119  0.0775  -1.0424   0.0000   0.5449
  -1.500   0.6449   0.03746   0.03181  -0.1793  0.5772  0.0981  -1.1184   0.0000   0.5281
  -1.000   1.0132   0.02024   0.01157  -0.2591  0.5391  0.0636  -1.3335   0.0000   0.5050
  -0.500   1.1005   0.01965   0.01057  -0.2653  0.5205  0.0646  -1.4066   0.0000   0.4895
   0.000   1.1875   0.01941   0.01061  -0.2716  0.5040  0.2931  -1.4819   0.0000   0.4764
   0.500   1.2437   0.02087   0.01201  -0.2712  0.4896  0.3794  -1.5452   0.0000   0.4650
   1.000   1.3016   0.02132   0.01238  -0.2714  0.4811  0.4040  -1.6090   0.0000   0.4546
   1.500   1.3632   0.02173   0.01279  -0.2725  0.4719  0.4351  -1.6761   0.0000   0.4452
   2.000   1.4252   0.02234   0.01340  -0.2737  0.4635  0.4763  -1.7445   0.0000   0.4365
   2.500   1.4925   0.02375   0.01471  -0.2762  0.4533  0.5446  -1.8150   0.0000   0.4287
   3.000   1.5444   0.02415   0.01547  -0.2752  0.4477  0.6512  -1.8757   0.0000   0.4209
   4.000   1.6329   0.02535   0.01702  -0.2701  0.4355  1.0000  -1.9956   0.0000   0.4065
   4.500   1.6870   0.02644   0.01812  -0.2699  0.4295  1.0000  -2.0681   0.0000   0.4002
   5.000   1.7417   0.02775   0.01931  -0.2698  0.4235  1.0000  -2.1484   0.0000   0.3942
   5.500   1.7925   0.02996   0.02155  -0.2694  0.4160  1.0000  -2.2272   0.0000   0.3887
   6.000   1.8365   0.03110   0.02286  -0.2673  0.4116  1.0000  -2.3122   0.0000   0.3830
   6.500   1.8784   0.03234   0.02426  -0.2647  0.4052  1.0000  -2.3985   0.0000   0.3775
   7.000   1.9206   0.03352   0.02555  -0.2623  0.3982  1.0000  -2.4926   0.0000   0.3722
   7.500   1.9666   0.03461   0.02684  -0.2606  0.3916  1.0000  -2.6079   0.0000   0.3672
   8.000   2.0145   0.03699   0.02920  -0.2598  0.3830  1.0000  -2.7575   0.0000   0.3626
   8.500   2.0428   0.03846   0.03099  -0.2549  0.3773  1.0000  -2.8968   0.0000   0.3575
   9.000   2.0683   0.03998   0.03281  -0.2497  0.3704  1.0000  -3.0336   0.0000   0.3524
   9.500   2.0973   0.04105   0.03405  -0.2449  0.3623  1.0000  -3.1813   0.0000   0.3474
  10.000   2.1430   0.04136   0.03442  -0.2430  0.3539  1.0000  -3.3649   0.0000   0.3429
  10.500   2.1644   0.04382   0.03710  -0.2376  0.3452  1.0000  -3.5015   0.0000   0.3382
  11.000   2.1521   0.04565   0.03933  -0.2260  0.3378  1.0000  -3.5770   0.0000   0.3324
  11.500   2.1603   0.04660   0.04046  -0.2180  0.3283  1.0000  -3.6958   0.0000   0.3272
  12.000   2.2056   0.04615   0.03984  -0.2160  0.3174  1.0000  -3.9129   0.0000   0.3230
  12.500   2.1852   0.04961   0.04374  -0.2051  0.3095  1.0000  -3.9841   0.0000   0.3178
  13.000   2.1653   0.05320   0.04772  -0.1956  0.3001  1.0000  -4.0556   0.0000   0.3131
  13.500   2.1766   0.05473   0.04936  -0.1901  0.2904  1.0000  -4.2014   0.0000   0.3088


