XFLR5 v6.09.05 beta

 Calculated polar for: S1223

 1 1 Reynolds number fixed          Mach number fixed         

 xtrf =   1.000 (top)        1.000 (bottom)
 Mach =   0.000     Re =     0.235 e 6     Ncrit =   9.000

  alpha     CL        CD       CDp       Cm    Top Xtr Bot Xtr   Cpmin    Chinge    XCp    
 ------- -------- --------- --------- -------- ------- ------- -------- --------- ---------
 -13.500  -0.2764   0.18514   0.18162  -0.0216  1.0000  0.0174  -1.3093   0.0000   0.1510
 -13.000  -0.2650   0.17643   0.17295  -0.0215  1.0000  0.0177  -1.3322   0.0000   0.1480
 -12.500  -0.2530   0.17012   0.16668  -0.0209  1.0000  0.0180  -1.2958   0.0000   0.1461
 -12.000  -0.2427   0.16489   0.16150  -0.0204  1.0000  0.0183  -1.2604   0.0000   0.1449
 -11.500  -0.2337   0.16023   0.15689  -0.0198  1.0000  0.0186  -1.2293   0.0000   0.1446
 -11.000  -0.2259   0.15591   0.15264  -0.0190  1.0000  0.0188  -1.2029   0.0000   0.1453
 -10.500  -0.2192   0.15183   0.14863  -0.0182  1.0000  0.0191  -1.1815   0.0000   0.1473
 -10.000  -0.1838   0.14529   0.14209  -0.0252  0.9958  0.0196  -1.1376   0.0000   0.0894
  -9.500  -0.1431   0.13830   0.13507  -0.0335  0.9898  0.0202  -1.0957   0.0000  -0.0147
  -9.000  -0.1064   0.13162   0.12839  -0.0407  0.9834  0.0209  -1.0627   0.0000  -0.1727
  -8.500  -0.0711   0.12506   0.12184  -0.0474  0.9761  0.0216  -1.0354   0.0000  -0.4761
  -8.000  -0.0333   0.11844   0.11522  -0.0547  0.9694  0.0225  -1.0110   0.0000  -1.5159
  -7.500   0.0039   0.11179   0.10859  -0.0617  0.9608  0.0235  -0.9912   0.0000  16.8845
  -7.000   0.0369   0.10550   0.10232  -0.0673  0.9496  0.0247  -0.9791   0.0000   2.1767
  -6.500   0.0714   0.09923   0.09607  -0.0732  0.9382  0.0261  -0.9744   0.0000   1.3252
  -6.000   0.1119   0.09287   0.08969  -0.0812  0.9274  0.0279  -0.9905   0.0000   1.0052
  -5.500   0.1340   0.08878   0.08564  -0.0859  0.9078  0.0292  -1.0498   0.0000   0.9130
  -5.000   0.1554   0.08416   0.08105  -0.0882  0.8846  0.0297  -1.0702   0.0000   0.8348
  -4.500   0.1790   0.07875   0.07565  -0.0906  0.8486  0.0299  -1.0822   0.0000   0.7689
  -4.000   0.2576   0.06921   0.06593  -0.1070  0.8095  0.0301  -1.0772   0.0000   0.6732
  -3.500   0.3584   0.05725   0.05346  -0.1258  0.7266  0.0346  -0.9335   0.0000   0.6065
  -3.000   0.4018   0.05297   0.04856  -0.1320  0.6362  0.0380  -0.9664   0.0000   0.5823
  -2.500   0.4740   0.04738   0.04261  -0.1488  0.5869  0.0454  -1.0059   0.0000   0.5661
  -2.000   0.5632   0.03801   0.03290  -0.1694  0.5546  0.0502  -1.0580   0.0000   0.5517
  -1.000   1.0054   0.01808   0.00979  -0.2566  0.4944  0.0446  -1.3376   0.0000   0.5045
  -0.500   1.0889   0.01738   0.00888  -0.2623  0.4801  0.0489  -1.4113   0.0000   0.4893
   0.000   1.1680   0.01728   0.00847  -0.2668  0.4657  0.0568  -1.4839   0.0000   0.4760
   0.500   1.2453   0.01789   0.00939  -0.2713  0.4523  0.3148  -1.5590   0.0000   0.4647
   1.000   1.2996   0.01832   0.00991  -0.2707  0.4457  0.3574  -1.6232   0.0000   0.4542
   1.500   1.3602   0.01864   0.01024  -0.2715  0.4380  0.3849  -1.6918   0.0000   0.4447
   2.000   1.4201   0.01911   0.01069  -0.2722  0.4305  0.4202  -1.7608   0.0000   0.4359
   2.500   1.4838   0.01989   0.01142  -0.2738  0.4211  0.4758  -1.8327   0.0000   0.4279
   3.000   1.5467   0.02063   0.01236  -0.2752  0.4150  0.5677  -1.9030   0.0000   0.4205
   3.500   1.6013   0.02104   0.01312  -0.2747  0.4106  0.7168  -1.9682   0.0000   0.4133
   4.000   1.6381   0.02123   0.01356  -0.2704  0.4058  1.0000  -2.0251   0.0000   0.4059
   4.500   1.6921   0.02201   0.01436  -0.2701  0.4005  1.0000  -2.0980   0.0000   0.3996
   5.000   1.7446   0.02280   0.01509  -0.2694  0.3952  1.0000  -2.1756   0.0000   0.3935
   5.500   1.7970   0.02373   0.01592  -0.2688  0.3888  1.0000  -2.2577   0.0000   0.3878
   6.000   1.8558   0.02558   0.01777  -0.2700  0.3815  1.0000  -2.3562   0.0000   0.3827
   6.500   1.8995   0.02615   0.01847  -0.2675  0.3780  1.0000  -2.4480   0.0000   0.3771
   7.000   1.9423   0.02694   0.01940  -0.2650  0.3729  1.0000  -2.5436   0.0000   0.3718
   7.500   1.9835   0.02766   0.02036  -0.2622  0.3664  1.0000  -2.6552   0.0000   0.3666
   8.000   2.0249   0.02835   0.02109  -0.2594  0.3599  1.0000  -2.8052   0.0000   0.3615
   8.500   2.0693   0.02941   0.02215  -0.2575  0.3535  1.0000  -2.9759   0.0000   0.3568
   9.000   2.1117   0.03107   0.02395  -0.2555  0.3458  1.0000  -3.1449   0.0000   0.3523
   9.500   2.1318   0.03178   0.02491  -0.2486  0.3403  1.0000  -3.2795   0.0000   0.3469
  10.000   2.1524   0.03258   0.02600  -0.2420  0.3330  1.0000  -3.4171   0.0000   0.3417
  10.500   2.1728   0.03316   0.02661  -0.2355  0.3244  1.0000  -3.5587   0.0000   0.3365
  11.000   2.2031   0.03461   0.02808  -0.2314  0.3138  1.0000  -3.7180   0.0000   0.3321
  11.500   2.2105   0.03603   0.02985  -0.2232  0.3081  1.0000  -3.8448   0.0000   0.3269
  12.000   2.2223   0.03763   0.03170  -0.2163  0.3000  1.0000  -3.9898   0.0000   0.3221
  12.500   2.2349   0.03932   0.03352  -0.2099  0.2912  1.0000  -4.1388   0.0000   0.3175
  13.000   2.2461   0.04169   0.03601  -0.2039  0.2815  1.0000  -4.2842   0.0000   0.3132
  13.500   2.2465   0.04460   0.03937  -0.1972  0.2719  1.0000  -4.4051   0.0000   0.3089
  14.000   2.2449   0.04794   0.04283  -0.1910  0.2597  1.0000  -4.5222   0.0000   0.3049
  14.500   2.2383   0.05259   0.04772  -0.1855  0.2465  1.0000  -4.6239   0.0000   0.3015
  15.000   2.2198   0.05906   0.05426  -0.1808  0.2292  1.0000  -4.6951   0.0000   0.2986
  15.500   2.1952   0.06738   0.06280  -0.1777  0.2109  1.0000  -4.7438   0.0000   0.2967
  16.000   2.1545   0.07867   0.07421  -0.1763  0.1936  1.0000  -4.7425   0.0000   0.2961
  16.500   2.1061   0.09194   0.08760  -0.1773  0.1777  1.0000  -4.7089   0.0000   0.2969


