XFLR5 v6.09.05 beta

 Calculated polar for: S1223

 1 1 Reynolds number fixed          Mach number fixed         

 xtrf =   1.000 (top)        1.000 (bottom)
 Mach =   0.000     Re =     0.260 e 6     Ncrit =   9.000

  alpha     CL        CD       CDp       Cm    Top Xtr Bot Xtr   Cpmin    Chinge    XCp    
 ------- -------- --------- --------- -------- ------- ------- -------- --------- ---------
 -15.000  -0.3052   0.20073   0.19727  -0.0191  1.0000  0.0171  -1.2219   0.0000   0.1666
 -14.500  -0.2945   0.19582   0.19240  -0.0198  1.0000  0.0171  -1.2244   0.0000   0.1620
 -14.000  -0.2842   0.19097   0.18756  -0.0203  1.0000  0.0171  -1.2275   0.0000   0.1577
 -13.500  -0.2743   0.18619   0.18282  -0.0207  1.0000  0.0171  -1.2312   0.0000   0.1537
  -9.000  -0.0874   0.12895   0.12582  -0.0472  0.9810  0.0191  -1.1554   0.0000  -0.3414
  -8.000  -0.0204   0.11614   0.11305  -0.0586  0.9652  0.0204  -1.0649   0.0000  -2.8225
  -7.500   0.0220   0.10930   0.10621  -0.0666  0.9596  0.0212  -1.0251   0.0000   3.4622
  -7.000   0.0526   0.10323   0.10017  -0.0713  0.9480  0.0221  -1.0011   0.0000   1.6795
  -6.500   0.0832   0.09728   0.09424  -0.0759  0.9355  0.0231  -0.9829   0.0000   1.2061
  -6.000   0.1264   0.09047   0.08741  -0.0838  0.9269  0.0245  -0.9646   0.0000   0.9401
  -5.500   0.1505   0.08505   0.08203  -0.0865  0.9080  0.0259  -0.9665   0.0000   0.8449
  -4.500   0.1878   0.07592   0.07292  -0.0909  0.8448  0.0290  -1.0492   0.0000   0.7464
  -4.000   0.2925   0.06607   0.06279  -0.1145  0.7962  0.0299  -1.0385   0.0000   0.6487
  -3.000   0.4037   0.05132   0.04693  -0.1350  0.6185  0.0336  -0.9827   0.0000   0.5881
  -2.500   0.4419   0.04746   0.04279  -0.1392  0.5746  0.0367  -0.9942   0.0000   0.5673
  -2.000   0.6101   0.03596   0.03066  -0.1823  0.5400  0.0463  -1.0792   0.0000   0.5496
  -1.000   1.0101   0.01727   0.00912  -0.2576  0.4861  0.0407  -1.3420   0.0000   0.5043
  -0.500   1.0761   0.01720   0.00891  -0.2594  0.4722  0.0463  -1.4059   0.0000   0.4894
   0.000   1.1690   0.01705   0.00827  -0.2670  0.4545  0.0512  -1.4868   0.0000   0.4760
   0.500   1.2419   0.01708   0.00883  -0.2706  0.4468  0.3041  -1.5594   0.0000   0.4646
   1.000   1.2967   0.01757   0.00936  -0.2700  0.4387  0.3491  -1.6244   0.0000   0.4541
   1.500   1.3570   0.01798   0.00967  -0.2707  0.4307  0.3737  -1.6935   0.0000   0.4446
   2.500   1.4834   0.01929   0.01097  -0.2736  0.4148  0.4617  -1.8357   0.0000   0.4279
   3.000   1.5407   0.01970   0.01160  -0.2738  0.4100  0.5448  -1.9036   0.0000   0.4203
   3.500   1.5982   0.02016   0.01236  -0.2740  0.4046  0.6836  -1.9718   0.0000   0.4131
   4.000   1.6354   0.02028   0.01279  -0.2697  0.3996  1.0000  -2.0282   0.0000   0.4057
   4.500   1.6895   0.02103   0.01350  -0.2693  0.3944  1.0000  -2.1021   0.0000   0.3994
   5.000   1.7450   0.02198   0.01434  -0.2694  0.3884  1.0000  -2.1810   0.0000   0.3934
   5.500   1.8044   0.02343   0.01576  -0.2705  0.3811  1.0000  -2.2666   0.0000   0.3880
   6.000   1.8514   0.02409   0.01652  -0.2687  0.3781  1.0000  -2.3566   0.0000   0.3823
   6.500   1.8957   0.02476   0.01729  -0.2664  0.3732  1.0000  -2.4490   0.0000   0.3768
   7.000   1.9400   0.02551   0.01812  -0.2642  0.3676  1.0000  -2.5461   0.0000   0.3715
   7.500   1.9820   0.02616   0.01894  -0.2615  0.3612  1.0000  -2.6588   0.0000   0.3662
   8.000   2.0250   0.02704   0.01980  -0.2591  0.3545  1.0000  -2.8111   0.0000   0.3613
   8.500   2.0768   0.02882   0.02167  -0.2590  0.3469  1.0000  -2.9922   0.0000   0.3570
   9.000   2.1012   0.02937   0.02245  -0.2529  0.3424  1.0000  -3.1326   0.0000   0.3516
   9.500   2.1253   0.03013   0.02339  -0.2468  0.3360  1.0000  -3.2742   0.0000   0.3464
  10.000   2.1493   0.03083   0.02428  -0.2409  0.3283  1.0000  -3.4189   0.0000   0.3413
  10.500   2.1775   0.03185   0.02524  -0.2361  0.3179  1.0000  -3.5740   0.0000   0.3365
  11.000   2.1963   0.03319   0.02684  -0.2298  0.3111  1.0000  -3.7114   0.0000   0.3316
  11.500   2.2113   0.03458   0.02851  -0.2230  0.3042  1.0000  -3.8539   0.0000   0.3267
  12.000   2.2270   0.03608   0.03020  -0.2167  0.2960  1.0000  -4.0078   0.0000   0.3220
  12.500   2.2418   0.03799   0.03213  -0.2108  0.2863  1.0000  -4.1616   0.0000   0.3175
  13.000   2.2514   0.04038   0.03484  -0.2046  0.2780  1.0000  -4.3030   0.0000   0.3132
  13.500   2.2577   0.04303   0.03781  -0.1985  0.2669  1.0000  -4.4384   0.0000   0.3090
  14.000   2.2535   0.04679   0.04160  -0.1921  0.2534  1.0000  -4.5501   0.0000   0.3051
  14.500   2.2479   0.05143   0.04650  -0.1869  0.2368  1.0000  -4.6555   0.0000   0.3016
  15.000   2.2276   0.05834   0.05351  -0.1821  0.2171  1.0000  -4.7219   0.0000   0.2989
  15.500   2.1909   0.06827   0.06349  -0.1788  0.1973  1.0000  -4.7402   0.0000   0.2973
  16.000   2.1516   0.07974   0.07512  -0.1778  0.1796  1.0000  -4.7417   0.0000   0.2968
  16.500   2.1061   0.09279   0.08838  -0.1789  0.1651  1.0000  -4.7154   0.0000   0.2976


