XFLR5 v6.09.05 beta

 Calculated polar for: S1223

 1 1 Reynolds number fixed          Mach number fixed         

 xtrf =   1.000 (top)        1.000 (bottom)
 Mach =   0.000     Re =     0.220 e 6     Ncrit =   9.000

  alpha     CL        CD       CDp       Cm    Top Xtr Bot Xtr   Cpmin    Chinge    XCp    
 ------- -------- --------- --------- -------- ------- ------- -------- --------- ---------
 -14.500  -0.2896   0.18797   0.18426  -0.0193  1.0000  0.0182  -1.2365   0.0000   0.1615
 -14.000  -0.2781   0.18286   0.17916  -0.0196  1.0000  0.0185  -1.2127   0.0000   0.1577
 -13.500  -0.2671   0.17798   0.17432  -0.0198  1.0000  0.0187  -1.1906   0.0000   0.1541
 -13.000  -0.2567   0.17328   0.16967  -0.0199  1.0000  0.0189  -1.1704   0.0000   0.1509
 -12.500  -0.2470   0.16874   0.16519  -0.0198  1.0000  0.0192  -1.1525   0.0000   0.1482
 -12.000  -0.2379   0.16435   0.16085  -0.0196  1.0000  0.0194  -1.1368   0.0000   0.1462
 -11.500  -0.2297   0.16011   0.15667  -0.0192  1.0000  0.0197  -1.1232   0.0000   0.1452
 -11.000  -0.2225   0.15603   0.15265  -0.0187  1.0000  0.0201  -1.1119   0.0000   0.1453
 -10.500  -0.2162   0.15207   0.14876  -0.0180  1.0000  0.0204  -1.1030   0.0000   0.1467
 -10.000  -0.2025   0.14751   0.14426  -0.0194  0.9989  0.0208  -1.0904   0.0000   0.1338
  -9.500  -0.1569   0.14014   0.13684  -0.0293  0.9924  0.0215  -1.0579   0.0000   0.0363
  -9.000  -0.1185   0.13333   0.13003  -0.0372  0.9859  0.0223  -1.0338   0.0000  -0.0990
  -8.500  -0.0811   0.12663   0.12333  -0.0446  0.9791  0.0232  -1.0137   0.0000  -0.3512
  -8.000  -0.0429   0.11993   0.11664  -0.0522  0.9718  0.0242  -0.9971   0.0000  -1.0604
  -7.000   0.0264   0.10708   0.10381  -0.0650  0.9508  0.0268  -0.9872   0.0000   2.8488
  -6.500   0.0621   0.10137   0.09812  -0.0723  0.9391  0.0284  -1.0161   0.0000   1.4721
  -6.000   0.0992   0.09648   0.09325  -0.0816  0.9268  0.0295  -1.0677   0.0000   1.1059
  -5.500   0.1239   0.09142   0.08820  -0.0849  0.9076  0.0298  -1.0785   0.0000   0.9591
  -5.000   0.1490   0.08578   0.08259  -0.0879  0.8852  0.0299  -1.0897   0.0000   0.8574
  -4.000   0.2147   0.06905   0.06583  -0.0967  0.8185  0.0322  -1.0966   0.0000   0.7098
  -3.500   0.3411   0.05898   0.05526  -0.1203  0.7460  0.0370  -0.9260   0.0000   0.6082
  -3.000   0.4065   0.05318   0.04880  -0.1338  0.6500  0.0424  -0.9673   0.0000   0.5828
  -1.500   0.7517   0.02805   0.02206  -0.2110  0.5278  0.0743  -1.1740   0.0000   0.5305
  -1.000   0.9975   0.01872   0.01045  -0.2548  0.5024  0.0462  -1.3316   0.0000   0.5047
  -0.500   1.0959   0.01769   0.00905  -0.2639  0.4849  0.0513  -1.4140   0.0000   0.4892
   0.000   1.1711   0.01758   0.00870  -0.2675  0.4714  0.0610  -1.4837   0.0000   0.4760
   0.500   1.2424   0.01815   0.00958  -0.2707  0.4584  0.3229  -1.5558   0.0000   0.4647
   1.000   1.3027   0.01884   0.01026  -0.2714  0.4498  0.3637  -1.6232   0.0000   0.4543
   1.500   1.3622   0.01916   0.01064  -0.2720  0.4427  0.3922  -1.6906   0.0000   0.4448
   2.000   1.4223   0.01959   0.01112  -0.2727  0.4354  0.4288  -1.7591   0.0000   0.4360
   2.500   1.4812   0.02013   0.01166  -0.2732  0.4274  0.4839  -1.8282   0.0000   0.4279
   3.000   1.5500   0.02129   0.01287  -0.2761  0.4177  0.5827  -1.9021   0.0000   0.4207
   3.500   1.6029   0.02170   0.01365  -0.2752  0.4141  0.7403  -1.9654   0.0000   0.4134
   4.000   1.6399   0.02193   0.01411  -0.2709  0.4099  1.0000  -2.0230   0.0000   0.4061
   4.500   1.6933   0.02274   0.01498  -0.2705  0.4048  1.0000  -2.0947   0.0000   0.3997
   5.000   1.7453   0.02357   0.01578  -0.2697  0.3993  1.0000  -2.1721   0.0000   0.3937
   5.500   1.7958   0.02435   0.01651  -0.2687  0.3932  1.0000  -2.2531   0.0000   0.3878
   6.000   1.8493   0.02552   0.01762  -0.2684  0.3873  1.0000  -2.3489   0.0000   0.3824
   6.500   1.9015   0.02723   0.01940  -0.2682  0.3805  1.0000  -2.4465   0.0000   0.3774
   7.000   1.9438   0.02798   0.02030  -0.2656  0.3764  1.0000  -2.5418   0.0000   0.3720
   7.500   1.9837   0.02875   0.02138  -0.2625  0.3701  1.0000  -2.6515   0.0000   0.3667
   8.000   2.0240   0.02949   0.02221  -0.2595  0.3634  1.0000  -2.7992   0.0000   0.3616
   8.500   2.0660   0.03032   0.02307  -0.2570  0.3573  1.0000  -2.9661   0.0000   0.3568
   9.000   2.1149   0.03243   0.02519  -0.2565  0.3476  1.0000  -3.1460   0.0000   0.3526
   9.500   2.1377   0.03298   0.02601  -0.2502  0.3430  1.0000  -3.2855   0.0000   0.3473
  10.000   2.1540   0.03386   0.02723  -0.2427  0.3361  1.0000  -3.4148   0.0000   0.3420
  10.500   2.1730   0.03443   0.02789  -0.2359  0.3275  1.0000  -3.5533   0.0000   0.3368
  11.000   2.2035   0.03544   0.02882  -0.2317  0.3167  1.0000  -3.7149   0.0000   0.3322
  11.500   2.2116   0.03705   0.03077  -0.2237  0.3104  1.0000  -3.8421   0.0000   0.3271
  12.000   2.2189   0.03877   0.03281  -0.2160  0.3027  1.0000  -3.9768   0.0000   0.3222
  12.500   2.2294   0.04048   0.03470  -0.2093  0.2940  1.0000  -4.1209   0.0000   0.3175
  13.000   2.2454   0.04252   0.03672  -0.2039  0.2832  1.0000  -4.2778   0.0000   0.3132
  13.500   2.2395   0.04571   0.04043  -0.1963  0.2750  1.0000  -4.3836   0.0000   0.3089
  14.000   2.2364   0.04907   0.04401  -0.1900  0.2632  1.0000  -4.4966   0.0000   0.3049
  14.500   2.2289   0.05364   0.04871  -0.1845  0.2504  1.0000  -4.5966   0.0000   0.3014
  15.000   2.2146   0.05972   0.05504  -0.1800  0.2351  1.0000  -4.6761   0.0000   0.2985
  15.500   2.1897   0.06785   0.06332  -0.1768  0.2187  1.0000  -4.7240   0.0000   0.2965
  16.000   2.1501   0.07884   0.07438  -0.1754  0.2009  1.0000  -4.7259   0.0000   0.2959


