XFLR5 v6.09.05 beta

 Calculated polar for: S1223

 1 1 Reynolds number fixed          Mach number fixed         

 xtrf =   1.000 (top)        1.000 (bottom)
 Mach =   0.000     Re =     0.170 e 6     Ncrit =   9.000

  alpha     CL        CD       CDp       Cm    Top Xtr Bot Xtr   Cpmin    Chinge    XCp    
 ------- -------- --------- --------- -------- ------- ------- -------- --------- ---------
 -15.000  -0.2936   0.19304   0.18877  -0.0180  1.0000  0.0243  -1.0175   0.0000   0.1663
 -14.500  -0.2821   0.18828   0.18402  -0.0188  1.0000  0.0246  -1.0143   0.0000   0.1611
 -14.000  -0.2710   0.18358   0.17937  -0.0194  1.0000  0.0249  -1.0129   0.0000   0.1560
 -13.500  -0.2603   0.17895   0.17479  -0.0199  1.0000  0.0253  -1.0123   0.0000   0.1513
 -13.000  -0.2502   0.17441   0.17030  -0.0202  1.0000  0.0257  -1.0126   0.0000   0.1470
 -12.500  -0.2406   0.16996   0.16591  -0.0204  1.0000  0.0261  -1.0143   0.0000   0.1431
 -12.000  -0.2317   0.16565   0.16166  -0.0204  1.0000  0.0266  -1.0178   0.0000   0.1400
 -11.500  -0.2235   0.16151   0.15758  -0.0203  1.0000  0.0271  -1.0240   0.0000   0.1376
 -11.000  -0.2164   0.15763   0.15377  -0.0201  1.0000  0.0276  -1.0344   0.0000   0.1362
 -10.500  -0.2105   0.15409   0.15030  -0.0197  1.0000  0.0282  -1.0519   0.0000   0.1359
 -10.000  -0.2067   0.15107   0.14736  -0.0192  1.0000  0.0287  -1.0769   0.0000   0.1374
  -9.500  -0.2054   0.14852   0.14491  -0.0186  1.0000  0.0291  -1.1066   0.0000   0.1411
  -9.000  -0.1821   0.14453   0.14093  -0.0246  0.9959  0.0294  -1.1347   0.0000   0.0942
  -8.500  -0.1403   0.13884   0.13522  -0.0358  0.9872  0.0297  -1.1565   0.0000  -0.0324
  -8.000  -0.1020   0.13245   0.12884  -0.0444  0.9769  0.0298  -1.1584   0.0000  -0.2213
  -7.500  -0.0645   0.12581   0.12221  -0.0522  0.9657  0.0300  -1.1591   0.0000  -0.6163
  -7.000  -0.0270   0.11905   0.11547  -0.0598  0.9536  0.0300  -1.1608   0.0000  -2.0905
  -6.500   0.0163   0.10597   0.10243  -0.0649  0.9461  0.0318  -1.1099   0.0000   4.4422
  -6.000   0.0556   0.09899   0.09548  -0.0689  0.9315  0.0335  -1.0033   0.0000   1.5468
  -5.500   0.0900   0.09287   0.08937  -0.0733  0.9139  0.0354  -0.9478   0.0000   1.0964
  -4.500   0.1429   0.08181   0.07839  -0.0790  0.8673  0.0401  -0.9119   0.0000   0.8188
  -4.000   0.1839   0.07552   0.07207  -0.0875  0.8358  0.0441  -0.9465   0.0000   0.7365
  -3.500   0.2760   0.06750   0.06384  -0.1104  0.7868  0.0462  -0.9945   0.0000   0.6559
  -3.000   0.3736   0.05577   0.05161  -0.1256  0.7147  0.0524  -0.9478   0.0000   0.5901
  -2.500   0.5071   0.04858   0.04361  -0.1594  0.6364  0.0654  -1.0174   0.0000   0.5664
  -2.000   0.5469   0.04228   0.03703  -0.1623  0.5973  0.0713  -1.0510   0.0000   0.5479
  -1.500   0.6864   0.03434   0.02851  -0.1919  0.5624  0.0948  -1.1395   0.0000   0.5295
  -1.000   1.0198   0.01971   0.01103  -0.2604  0.5265  0.0608  -1.3399   0.0000   0.5047
  -0.500   1.0982   0.01898   0.01008  -0.2647  0.5107  0.0614  -1.4082   0.0000   0.4895
   0.000   1.1915   0.01904   0.01014  -0.2724  0.4925  0.2807  -1.4881   0.0000   0.4763
   0.500   1.2411   0.01999   0.01128  -0.2706  0.4824  0.3658  -1.5465   0.0000   0.4649
   1.000   1.3004   0.02042   0.01166  -0.2710  0.4724  0.3941  -1.6123   0.0000   0.4545
   1.500   1.3633   0.02093   0.01204  -0.2724  0.4633  0.4227  -1.6816   0.0000   0.4450
   2.000   1.4333   0.02211   0.01313  -0.2755  0.4532  0.4652  -1.7541   0.0000   0.4366
   2.500   1.4885   0.02252   0.01375  -0.2752  0.4475  0.5269  -1.8178   0.0000   0.4284
   3.000   1.5439   0.02306   0.01454  -0.2749  0.4402  0.6307  -1.8819   0.0000   0.4208
   3.500   1.5859   0.02338   0.01523  -0.2716  0.4340  0.8485  -1.9383   0.0000   0.4131
   4.500   1.6936   0.02550   0.01717  -0.2710  0.4216  1.0000  -2.0807   0.0000   0.4001
   5.000   1.7473   0.02732   0.01902  -0.2710  0.4156  1.0000  -2.1573   0.0000   0.3944
   5.500   1.7933   0.02816   0.01998  -0.2691  0.4105  1.0000  -2.2342   0.0000   0.3884
   6.000   1.8392   0.02933   0.02126  -0.2673  0.4050  1.0000  -2.3213   0.0000   0.3828
   6.500   1.8845   0.03038   0.02239  -0.2654  0.3984  1.0000  -2.4130   0.0000   0.3773
   7.000   1.9320   0.03137   0.02338  -0.2639  0.3919  1.0000  -2.5145   0.0000   0.3721
   7.500   1.9817   0.03324   0.02538  -0.2632  0.3843  1.0000  -2.6342   0.0000   0.3674
   8.000   2.0170   0.03492   0.02733  -0.2597  0.3783  1.0000  -2.7685   0.0000   0.3624
   8.500   2.0487   0.03601   0.02867  -0.2553  0.3717  1.0000  -2.9151   0.0000   0.3572
   9.000   2.0812   0.03720   0.03006  -0.2512  0.3645  1.0000  -3.0661   0.0000   0.3523
   9.500   2.1212   0.03773   0.03060  -0.2483  0.3567  1.0000  -3.2362   0.0000   0.3475
  10.000   2.1614   0.03993   0.03296  -0.2462  0.3470  1.0000  -3.4063   0.0000   0.3433
  10.500   2.1651   0.04105   0.03445  -0.2368  0.3409  1.0000  -3.5127   0.0000   0.3377
  11.000   2.1686   0.04218   0.03583  -0.2276  0.3322  1.0000  -3.6208   0.0000   0.3323
  11.500   2.1937   0.04226   0.03592  -0.2221  0.3227  1.0000  -3.7789   0.0000   0.3274
  12.000   2.2135   0.04401   0.03776  -0.2167  0.3128  1.0000  -3.9403   0.0000   0.3229
  12.500   2.1970   0.04682   0.04101  -0.2060  0.3051  1.0000  -4.0216   0.0000   0.3176
  13.000   2.1973   0.04909   0.04353  -0.1986  0.2957  1.0000  -4.1415   0.0000   0.3131
  13.500   2.2185   0.05033   0.04480  -0.1942  0.2852  1.0000  -4.3117   0.0000   0.3089
  14.000   2.1900   0.05556   0.05052  -0.1856  0.2762  1.0000  -4.3602   0.0000   0.3049


