XFLR5 v6.09.05 beta

 Calculated polar for: S1223

 1 1 Reynolds number fixed          Mach number fixed         

 xtrf =   1.000 (top)        1.000 (bottom)
 Mach =   0.000     Re =     0.330 e 6     Ncrit =   9.000

  alpha     CL        CD       CDp       Cm    Top Xtr Bot Xtr   Cpmin    Chinge    XCp    
 ------- -------- --------- --------- -------- ------- ------- -------- --------- ---------
 -14.500  -0.2923   0.19305   0.19002  -0.0179  1.0000  0.0170  -1.1628   0.0000   0.1678
 -14.000  -0.2819   0.18834   0.18532  -0.0185  1.0000  0.0170  -1.1666   0.0000   0.1636
 -13.500  -0.2721   0.18372   0.18074  -0.0189  1.0000  0.0170  -1.1713   0.0000   0.1599
 -13.000  -0.2629   0.17919   0.17625  -0.0191  1.0000  0.0170  -1.1770   0.0000   0.1567
 -12.500  -0.2543   0.17473   0.17184  -0.0192  1.0000  0.0170  -1.1829   0.0000   0.1541
 -12.000  -0.2464   0.17038   0.16753  -0.0191  1.0000  0.0170  -1.1895   0.0000   0.1524
 -11.500  -0.2323   0.16548   0.16266  -0.0209  0.9992  0.0171  -1.1939   0.0000   0.1397
 -11.000  -0.1838   0.15723   0.15437  -0.0323  0.9935  0.0171  -1.1824   0.0000   0.0476
 -10.500  -0.1443   0.14976   0.14689  -0.0410  0.9886  0.0171  -1.1755   0.0000  -0.0681
 -10.000  -0.1116   0.14280   0.13990  -0.0475  0.9828  0.0171  -1.1721   0.0000  -0.2187
  -9.500  -0.0805   0.13612   0.13323  -0.0534  0.9774  0.0171  -1.1703   0.0000  -0.4727
  -8.500  -0.0163   0.12274   0.11987  -0.0653  0.9649  0.0172  -1.1675   0.0000  -4.0254
  -7.000   0.0826   0.09812   0.09529  -0.0840  0.9448  0.0182  -1.2798   0.0000   1.3169
  -6.500   0.1085   0.09233   0.08954  -0.0853  0.9309  0.0188  -1.1938   0.0000   1.0706
  -6.000   0.1353   0.08692   0.08415  -0.0874  0.9153  0.0194  -1.1263   0.0000   0.9215
  -5.500   0.1580   0.08190   0.07915  -0.0888  0.8948  0.0201  -1.0803   0.0000   0.8315
  -5.000   0.1818   0.07683   0.07408  -0.0907  0.8670  0.0209  -1.0471   0.0000   0.7637
  -4.500   0.2503   0.06880   0.06589  -0.1042  0.8288  0.0224  -0.9902   0.0000   0.6765
  -4.000   0.3528   0.05966   0.05605  -0.1270  0.7170  0.0252  -0.9403   0.0000   0.6168
  -3.500   0.3667   0.05631   0.05221  -0.1273  0.6270  0.0268  -0.9683   0.0000   0.6023
  -3.000   0.4036   0.05223   0.04785  -0.1338  0.5767  0.0294  -1.0155   0.0000   0.5852
  -2.500   0.4650   0.04621   0.04161  -0.1462  0.5443  0.0299  -1.0392   0.0000   0.5665
  -1.000   1.0134   0.01600   0.00811  -0.2580  0.4677  0.0325  -1.3482   0.0000   0.5038
  -0.500   1.0841   0.01602   0.00797  -0.2612  0.4512  0.0423  -1.4157   0.0000   0.4892
   0.000   1.1596   0.01577   0.00754  -0.2649  0.4415  0.0434  -1.4869   0.0000   0.4759
   0.500   1.2364   0.01577   0.00780  -0.2692  0.4309  0.2753  -1.5614   0.0000   0.4644
   1.000   1.2959   0.01651   0.00845  -0.2698  0.4191  0.3251  -1.6295   0.0000   0.4540
   1.500   1.3551   0.01685   0.00884  -0.2702  0.4142  0.3516  -1.6982   0.0000   0.4444
   2.000   1.4127   0.01714   0.00922  -0.2704  0.4088  0.3833  -1.7665   0.0000   0.4356
   2.500   1.4691   0.01752   0.00965  -0.2703  0.4023  0.4290  -1.8347   0.0000   0.4273
   3.000   1.5261   0.01799   0.01019  -0.2704  0.3965  0.4974  -1.9036   0.0000   0.4197
   3.500   1.5866   0.01859   0.01095  -0.2713  0.3900  0.6134  -1.9751   0.0000   0.4126
   4.000   1.6535   0.01946   0.01210  -0.2737  0.3818  0.8230  -2.0511   0.0000   0.4063
   4.500   1.6932   0.01969   0.01251  -0.2700  0.3798  1.0000  -2.1135   0.0000   0.3994
   5.000   1.7426   0.02025   0.01309  -0.2687  0.3763  1.0000  -2.1863   0.0000   0.3932
   5.500   1.7899   0.02085   0.01371  -0.2669  0.3717  1.0000  -2.2639   0.0000   0.3872
   6.000   1.8376   0.02151   0.01439  -0.2652  0.3670  1.0000  -2.3516   0.0000   0.3815
   6.500   1.8817   0.02216   0.01503  -0.2629  0.3616  1.0000  -2.4446   0.0000   0.3759
   7.000   1.9274   0.02299   0.01583  -0.2610  0.3555  1.0000  -2.5417   0.0000   0.3706
   7.500   1.9843   0.02433   0.01731  -0.2617  0.3470  1.0000  -2.6692   0.0000   0.3661
   8.000   2.0191   0.02492   0.01807  -0.2575  0.3440  1.0000  -2.8093   0.0000   0.3608
   8.500   2.0528   0.02561   0.01890  -0.2533  0.3391  1.0000  -2.9623   0.0000   0.3556
   9.000   2.0841   0.02630   0.01970  -0.2486  0.3327  1.0000  -3.1145   0.0000   0.3505
   9.500   2.1142   0.02709   0.02054  -0.2438  0.3258  1.0000  -3.2674   0.0000   0.3455
  10.000   2.1502   0.02843   0.02194  -0.2406  0.3143  1.0000  -3.4326   0.0000   0.3410
  10.500   2.1708   0.02929   0.02305  -0.2343  0.3095  1.0000  -3.5729   0.0000   0.3359
  11.000   2.1950   0.03043   0.02439  -0.2289  0.3028  1.0000  -3.7207   0.0000   0.3312
  11.500   2.2173   0.03174   0.02584  -0.2235  0.2950  1.0000  -3.8814   0.0000   0.3266
  12.000   2.2365   0.03365   0.02777  -0.2180  0.2847  1.0000  -4.0427   0.0000   0.3221
  12.500   2.2564   0.03536   0.02979  -0.2128  0.2778  1.0000  -4.2070   0.0000   0.3178
  13.000   2.2718   0.03744   0.03210  -0.2074  0.2664  1.0000  -4.3638   0.0000   0.3135
  13.500   2.2732   0.04069   0.03540  -0.2009  0.2489  1.0000  -4.4903   0.0000   0.3093
  14.000   2.2630   0.04554   0.04021  -0.1943  0.2246  1.0000  -4.5883   0.0000   0.3055
  15.000   2.2120   0.06083   0.05559  -0.1837  0.1768  1.0000  -4.6968   0.0000   0.3000
  15.500   2.1786   0.07111   0.06601  -0.1813  0.1591  1.0000  -4.7204   0.0000   0.2988
  16.000   2.1325   0.08412   0.07922  -0.1812  0.1461  1.0000  -4.7004   0.0000   0.2990
  16.500   2.0893   0.09725   0.09257  -0.1827  0.1346  1.0000  -4.6780   0.0000   0.3000
  17.000   2.0396   0.11143   0.10694  -0.1857  0.1248  1.0000  -4.6260   0.0000   0.3022


