XFLR5 v6.09.05 beta

 Calculated polar for: S1223

 1 1 Reynolds number fixed          Mach number fixed         

 xtrf =   1.000 (top)        1.000 (bottom)
 Mach =   0.000     Re =     0.275 e 6     Ncrit =   9.000

  alpha     CL        CD       CDp       Cm    Top Xtr Bot Xtr   Cpmin    Chinge    XCp    
 ------- -------- --------- --------- -------- ------- ------- -------- --------- ---------
 -14.500  -0.2938   0.19510   0.19178  -0.0193  1.0000  0.0171  -1.2078   0.0000   0.1633
 -14.000  -0.2834   0.19028   0.18697  -0.0199  1.0000  0.0171  -1.2109   0.0000   0.1590
 -13.500  -0.2736   0.18555   0.18228  -0.0203  1.0000  0.0171  -1.2149   0.0000   0.1552
 -13.000  -0.2643   0.18090   0.17767  -0.0205  1.0000  0.0171  -1.2195   0.0000   0.1518
 -12.500  -0.2556   0.17635   0.17317  -0.0206  1.0000  0.0171  -1.2253   0.0000   0.1491
 -12.000  -0.2477   0.17192   0.16878  -0.0205  1.0000  0.0171  -1.2321   0.0000   0.1472
 -11.500  -0.2406   0.16760   0.16451  -0.0203  1.0000  0.0171  -1.2399   0.0000   0.1463
  -9.500  -0.1198   0.13647   0.13340  -0.0454  0.9830  0.0178  -1.3416   0.0000  -0.1677
  -9.000  -0.0837   0.12815   0.12508  -0.0502  0.9775  0.0183  -1.2607   0.0000  -0.4046
  -8.500  -0.0451   0.12111   0.11806  -0.0565  0.9722  0.0189  -1.1791   0.0000  -1.1015
  -8.000  -0.0124   0.11476   0.11173  -0.0614  0.9637  0.0195  -1.1196   0.0000  -5.0314
  -7.500   0.0316   0.10787   0.10483  -0.0696  0.9591  0.0202  -1.0625   0.0000   2.5850
  -7.000   0.0609   0.10194   0.09894  -0.0737  0.9472  0.0210  -1.0290   0.0000   1.5252
  -6.500   0.0899   0.09616   0.09319  -0.0777  0.9343  0.0218  -1.0033   0.0000   1.1551
  -6.000   0.1316   0.08952   0.08653  -0.0851  0.9256  0.0230  -0.9765   0.0000   0.9222
  -5.500   0.1575   0.08400   0.08104  -0.0880  0.9074  0.0242  -0.9678   0.0000   0.8284
  -5.000   0.1679   0.07965   0.07674  -0.0869  0.8782  0.0253  -0.9759   0.0000   0.7836
  -4.500   0.1963   0.07407   0.07111  -0.0908  0.8433  0.0270  -0.9916   0.0000   0.7247
  -4.000   0.3144   0.06415   0.06082  -0.1195  0.7833  0.0298  -1.0183   0.0000   0.6371
  -3.500   0.3948   0.05678   0.05271  -0.1367  0.6710  0.0300  -1.0202   0.0000   0.6013
  -3.000   0.4126   0.04952   0.04511  -0.1402  0.6090  0.0321  -1.1021   0.0000   0.5935
  -2.500   0.4464   0.04630   0.04162  -0.1418  0.5666  0.0344  -0.9942   0.0000   0.5700
  -2.000   0.5249   0.04031   0.03538  -0.1569  0.5378  0.0403  -1.0439   0.0000   0.5499
  -1.000   1.0113   0.01685   0.00879  -0.2578  0.4822  0.0384  -1.3437   0.0000   0.5041
  -0.500   1.0776   0.01686   0.00861  -0.2597  0.4673  0.0456  -1.4083   0.0000   0.4894
   0.000   1.1642   0.01677   0.00815  -0.2660  0.4516  0.0477  -1.4851   0.0000   0.4760
   0.500   1.2400   0.01670   0.00855  -0.2701  0.4433  0.2978  -1.5595   0.0000   0.4646
   1.000   1.2946   0.01721   0.00908  -0.2695  0.4349  0.3439  -1.6246   0.0000   0.4541
   1.500   1.3549   0.01773   0.00943  -0.2702  0.4264  0.3662  -1.6938   0.0000   0.4445
   2.000   1.4241   0.01854   0.01020  -0.2730  0.4167  0.4022  -1.7684   0.0000   0.4359
   2.500   1.4795   0.01883   0.01061  -0.2727  0.4122  0.4510  -1.8353   0.0000   0.4277
   3.000   1.5381   0.01924   0.01125  -0.2732  0.4068  0.5348  -1.9043   0.0000   0.4201
   3.500   1.5961   0.01971   0.01197  -0.2735  0.4012  0.6665  -1.9734   0.0000   0.4130
   4.500   1.6889   0.02063   0.01315  -0.2691  0.3907  1.0000  -2.1045   0.0000   0.3993
   5.000   1.7531   0.02211   0.01451  -0.2712  0.3825  1.0000  -2.1884   0.0000   0.3938
   5.500   1.8013   0.02271   0.01518  -0.2697  0.3794  1.0000  -2.2662   0.0000   0.3878
   6.000   1.8487   0.02340   0.01595  -0.2680  0.3757  1.0000  -2.3561   0.0000   0.3822
   6.500   1.8937   0.02407   0.01670  -0.2658  0.3703  1.0000  -2.4495   0.0000   0.3766
   7.000   1.9383   0.02479   0.01746  -0.2636  0.3647  1.0000  -2.5468   0.0000   0.3713
   7.500   1.9793   0.02546   0.01827  -0.2607  0.3584  1.0000  -2.6583   0.0000   0.3660
   8.000   2.0323   0.02686   0.01964  -0.2607  0.3499  1.0000  -2.8247   0.0000   0.3616
   8.500   2.0716   0.02792   0.02089  -0.2577  0.3454  1.0000  -2.9863   0.0000   0.3567
   9.000   2.0958   0.02855   0.02172  -0.2515  0.3402  1.0000  -3.1261   0.0000   0.3513
   9.500   2.1227   0.02931   0.02262  -0.2461  0.3335  1.0000  -3.2728   0.0000   0.3462
  10.000   2.1468   0.03002   0.02348  -0.2402  0.3258  1.0000  -3.4181   0.0000   0.3410
  10.500   2.1806   0.03140   0.02484  -0.2366  0.3143  1.0000  -3.5821   0.0000   0.3366
  11.000   2.1947   0.03248   0.02622  -0.2293  0.3094  1.0000  -3.7115   0.0000   0.3314
  11.500   2.2126   0.03383   0.02781  -0.2231  0.3020  1.0000  -3.8604   0.0000   0.3267
  12.000   2.2296   0.03533   0.02946  -0.2170  0.2937  1.0000  -4.0174   0.0000   0.3220
  12.500   2.2463   0.03742   0.03157  -0.2114  0.2832  1.0000  -4.1748   0.0000   0.3176
  13.000   2.2560   0.03964   0.03422  -0.2052  0.2757  1.0000  -4.3170   0.0000   0.3133
  13.500   2.2630   0.04228   0.03705  -0.1992  0.2639  1.0000  -4.4548   0.0000   0.3091
  14.000   2.2605   0.04607   0.04095  -0.1931  0.2497  1.0000  -4.5701   0.0000   0.3052
  14.500   2.2473   0.05138   0.04633  -0.1872  0.2297  1.0000  -4.6586   0.0000   0.3018
  15.000   2.2270   0.05851   0.05358  -0.1826  0.2080  1.0000  -4.7247   0.0000   0.2991
  15.500   2.1932   0.06825   0.06342  -0.1795  0.1882  1.0000  -4.7498   0.0000   0.2975
  16.000   2.1453   0.08099   0.07628  -0.1786  0.1719  1.0000  -4.7275   0.0000   0.2974
  16.500   2.1021   0.09384   0.08934  -0.1798  0.1574  1.0000  -4.7074   0.0000   0.2982
  17.000   2.0524   0.10788   0.10356  -0.1826  0.1455  1.0000  -4.6569   0.0000   0.3002


