XFLR5 v6.09.05 beta

 Calculated polar for: S1223

 1 1 Reynolds number fixed          Mach number fixed         

 xtrf =   1.000 (top)        1.000 (bottom)
 Mach =   0.000     Re =     0.005 e 6     Ncrit =   9.000

  alpha     CL        CD       CDp       Cm    Top Xtr Bot Xtr   Cpmin    Chinge    XCp    
 ------- -------- --------- --------- -------- ------- ------- -------- --------- ---------
 -15.000  -0.1657   0.18446   0.15895  -0.0304  1.0000  1.0000  -0.7924   0.0000   0.0180
 -14.500  -0.1499   0.17984   0.15452  -0.0319  1.0000  1.0000  -0.7940   0.0000  -0.0145
 -14.000  -0.1342   0.17530   0.15019  -0.0332  1.0000  1.0000  -0.7959   0.0000  -0.0535
 -13.500  -0.1188   0.17086   0.14596  -0.0345  1.0000  1.0000  -0.7984   0.0000  -0.1013
 -13.000  -0.1035   0.16648   0.14182  -0.0356  1.0000  1.0000  -0.8013   0.0000  -0.1615
 -12.500  -0.0885   0.16219   0.13778  -0.0365  1.0000  1.0000  -0.8047   0.0000  -0.2396
 -12.000  -0.0738   0.15800   0.13384  -0.0374  1.0000  1.0000  -0.8086   0.0000  -0.3457
 -11.500  -0.0594   0.15390   0.12987  -0.0382  1.0000  1.0000  -0.8130   0.0000  -0.4983
 -11.000  -0.0454   0.14992   0.12618  -0.0388  1.0000  1.0000  -0.8177   0.0000  -0.7371
 -10.500  -0.0318   0.14604   0.12260  -0.0392  1.0000  1.0000  -0.8227   0.0000  -1.1654
 -10.000  -0.0187   0.14227   0.11914  -0.0396  1.0000  1.0000  -0.8282   0.0000  -2.1604
  -9.500  -0.0061   0.13860   0.11581  -0.0398  1.0000  1.0000  -0.8339   0.0000  -7.0843
  -9.000   0.0058   0.13505   0.11261  -0.0398  1.0000  1.0000  -0.8399   0.0000   7.9496
  -8.500   0.0171   0.13162   0.10955  -0.0397  1.0000  1.0000  -0.8459   0.0000   2.8511
  -8.000   0.0276   0.12832   0.10664  -0.0394  1.0000  1.0000  -0.8519   0.0000   1.8427
  -7.500   0.0372   0.12516   0.10390  -0.0390  1.0000  1.0000  -0.8578   0.0000   1.4128
  -7.000   0.0457   0.12217   0.10134  -0.0383  1.0000  1.0000  -0.8634   0.0000   1.1759
  -6.500   0.0531   0.11936   0.09899  -0.0375  1.0000  1.0000  -0.8686   0.0000   1.0273
  -6.000   0.0590   0.11676   0.09671  -0.0364  1.0000  1.0000  -0.8731   0.0000   0.9270
  -5.500   0.0633   0.11440   0.09484  -0.0352  1.0000  1.0000  -0.8783   0.0000   0.8568
  -5.000   0.0657   0.11231   0.09325  -0.0337  1.0000  1.0000  -0.8836   0.0000   0.8075
  -4.500   0.0659   0.11051   0.09197  -0.0319  1.0000  1.0000  -0.8894   0.0000   0.7748
  -4.000   0.0638   0.10903   0.09101  -0.0299  1.0000  1.0000  -0.8960   0.0000   0.7572
  -3.500   0.0591   0.10787   0.09038  -0.0277  1.0000  1.0000  -0.9037   0.0000   0.7559
  -3.000   0.0519   0.10703   0.09005  -0.0253  1.0000  1.0000  -0.9125   0.0000   0.7755
  -2.500   0.0426   0.10644   0.08995  -0.0228  1.0000  1.0000  -0.9224   0.0000   0.8275
  -2.000   0.0318   0.10602   0.08997  -0.0204  1.0000  1.0000  -0.9332   0.0000   0.9413
  -1.500   0.0202   0.10565   0.09001  -0.0180  1.0000  1.0000  -0.9445   0.0000   1.2163
  -1.000   0.0083   0.10522   0.08997  -0.0158  1.0000  1.0000  -0.9560   0.0000   2.3211
  -0.500  -0.0035   0.10467   0.08976  -0.0138  1.0000  1.0000  -0.9676   0.0000  -4.0726
   0.000  -0.0150   0.10393   0.08934  -0.0119  1.0000  1.0000  -0.9792   0.0000  -0.6209
   0.500  -0.0262   0.10297   0.08868  -0.0102  1.0000  1.0000  -0.9908   0.0000  -0.1771
   1.000  -0.0373   0.10175   0.08775  -0.0085  1.0000  1.0000  -1.0027   0.0000  -0.0036
   1.500  -0.0484   0.10025   0.08652  -0.0070  1.0000  1.0000  -1.0149   0.0000   0.0888
   2.000  -0.0594   0.09841   0.08495  -0.0054  1.0000  1.0000  -1.0333   0.0000   0.1460
   2.500  -0.0706   0.09620   0.08300  -0.0039  1.0000  1.0000  -1.0626   0.0000   0.1845
   3.000  -0.0816   0.09355   0.08061  -0.0026  1.0000  1.0000  -1.0929   0.0000   0.2108
   3.500  -0.0913   0.09046   0.07775  -0.0016  1.0000  1.0000  -1.1242   0.0000   0.2261
   4.000  -0.0855   0.08760   0.07500  -0.0046  1.0000  1.0000  -1.1557   0.0000   0.1903
   4.500   0.0168   0.08918   0.07579  -0.0325  1.0000  1.0000  -1.1924   0.0000   2.1791
   5.000   0.4651   0.11636   0.09673  -0.1461  1.0000  1.0000  -0.9982   0.0000   0.5572
   5.500   0.5324   0.12393   0.10239  -0.1577  1.0000  1.0000  -0.8321   0.0000   0.5383
   6.000   0.5803   0.13042   0.10753  -0.1643  1.0000  1.0000  -0.7649   0.0000   0.5244
   6.500   0.6208   0.13660   0.11252  -0.1692  1.0000  1.0000  -0.7834   0.0000   0.5130
   7.000   0.6570   0.14267   0.11775  -0.1732  1.0000  1.0000  -0.8052   0.0000   0.5032
   7.500   0.6903   0.14872   0.12313  -0.1767  1.0000  1.0000  -0.8241   0.0000   0.4946
   8.000   0.7215   0.15480   0.12868  -0.1799  1.0000  1.0000  -0.8423   0.0000   0.4870
   8.500   0.7511   0.16091   0.13437  -0.1828  1.0000  1.0000  -0.8640   0.0000   0.4802
   9.000   0.7793   0.16713   0.14028  -0.1856  1.0000  1.0000  -0.8831   0.0000   0.4741
   9.500   0.8064   0.17346   0.14648  -0.1884  1.0000  1.0000  -0.9012   0.0000   0.4686
  10.000   0.8323   0.17987   0.15270  -0.1911  1.0000  1.0000  -0.9242   0.0000   0.4637
  10.500   0.8573   0.18640   0.15911  -0.1938  1.0000  1.0000  -0.9445   0.0000   0.4592
  11.000   0.8813   0.19306   0.16571  -0.1965  1.0000  1.0000  -0.9656   0.0000   0.4551
  11.500   0.9044   0.19984   0.17250  -0.1992  1.0000  1.0000  -0.9901   0.0000   0.4514
  12.000   0.9268   0.20677   0.17951  -0.2019  1.0000  1.0000  -1.0116   0.0000   0.4481
  12.500   0.9484   0.21385   0.18671  -0.2047  1.0000  1.0000  -1.0361   0.0000   0.4451
  13.000   0.9692   0.22110   0.19413  -0.2076  1.0000  1.0000  -1.0622   0.0000   0.4424
  13.500   0.9893   0.22852   0.20177  -0.2105  1.0000  1.0000  -1.0851   0.0000   0.4400
  14.000   1.0087   0.23611   0.20991  -0.2135  1.0000  1.0000  -1.1139   0.0000   0.4378
  14.500   1.0275   0.24390   0.21794  -0.2166  1.0000  1.0000  -1.1415   0.0000   0.4359
  15.000   1.0456   0.25188   0.22620  -0.2197  1.0000  1.0000  -1.1653   0.0000   0.4341
  15.500   1.0632   0.26005   0.23467  -0.2229  1.0000  1.0000  -1.1883   0.0000   0.4326
  16.000   1.0802   0.26836   0.24331  -0.2262  1.0000  1.0000  -1.2173   0.0000   0.4312
  16.500   1.0967   0.27687   0.25217  -0.2295  1.0000  1.0000  -1.2423   0.0000   0.4299
  17.000   1.1127   0.28561   0.26128  -0.2329  1.0000  1.0000  -1.2631   0.0000   0.4288
  17.500   1.1280   0.29461   0.27066  -0.2364  1.0000  1.0000  -1.2794   0.0000   0.4278
  18.000   1.1428   0.30387   0.28032  -0.2399  1.0000  1.0000  -1.2912   0.0000   0.4269
  18.500   1.1571   0.31341   0.29097  -0.2433  1.0000  1.0000  -1.3010   0.0000   0.4261
  19.000   1.1707   0.32319   0.30118  -0.2468  1.0000  1.0000  -1.3203   0.0000   0.4253
  19.500   1.1838   0.33321   0.31163  -0.2504  1.0000  1.0000  -1.3352   0.0000   0.4247
  20.000   1.1963   0.34348   0.32234  -0.2539  1.0000  1.0000  -1.3458   0.0000   0.4241
  20.500   1.2081   0.35398   0.33328  -0.2574  1.0000  1.0000  -1.3519   0.0000   0.4236
  21.000   1.2194   0.36468   0.34444  -0.2608  1.0000  1.0000  -1.3536   0.0000   0.4231
  21.500   1.2300   0.37560   0.35581  -0.2642  1.0000  1.0000  -1.3641   0.0000   0.4226
  22.000   1.2401   0.38674   0.36740  -0.2676  1.0000  1.0000  -1.3772   0.0000   0.4222
  22.500   1.2495   0.39808   0.37920  -0.2709  1.0000  1.0000  -1.3861   0.0000   0.4217
  24.500   1.2691   0.44060   0.42443  -0.2814  0.9796  1.0000  -1.4109   0.0000   0.4207
  25.000   1.2583   0.44952   0.43407  -0.2806  0.9458  1.0000  -1.3865   0.0000   0.4208


