XFLR5 v6.09.05 beta

 Calculated polar for: S1223

 1 1 Reynolds number fixed          Mach number fixed         

 xtrf =   1.000 (top)        1.000 (bottom)
 Mach =   0.000     Re =     0.180 e 6     Ncrit =   9.000

  alpha     CL        CD       CDp       Cm    Top Xtr Bot Xtr   Cpmin    Chinge    XCp    
 ------- -------- --------- --------- -------- ------- ------- -------- --------- ---------
 -14.500  -0.2831   0.18800   0.18387  -0.0186  1.0000  0.0228  -1.0276   0.0000   0.1622
 -14.000  -0.2720   0.18331   0.17922  -0.0192  1.0000  0.0231  -1.0245   0.0000   0.1574
 -13.500  -0.2614   0.17868   0.17464  -0.0196  1.0000  0.0234  -1.0219   0.0000   0.1528
 -13.000  -0.2512   0.17412   0.17013  -0.0199  1.0000  0.0237  -1.0200   0.0000   0.1487
 -12.500  -0.2416   0.16965   0.16572  -0.0201  1.0000  0.0241  -1.0189   0.0000   0.1451
 -12.000  -0.2328   0.16529   0.16142  -0.0200  1.0000  0.0245  -1.0188   0.0000   0.1423
 -11.500  -0.2246   0.16105   0.15724  -0.0198  1.0000  0.0250  -1.0199   0.0000   0.1403
 -11.000  -0.2174   0.15696   0.15322  -0.0194  1.0000  0.0255  -1.0227   0.0000   0.1396
 -10.500  -0.2111   0.15300   0.14932  -0.0189  1.0000  0.0260  -1.0279   0.0000   0.1401
 -10.000  -0.2059   0.14921   0.14562  -0.0181  1.0000  0.0266  -1.0363   0.0000   0.1423
  -9.500  -0.2022   0.14570   0.14216  -0.0172  1.0000  0.0273  -1.0492   0.0000   0.1461
  -8.500  -0.1225   0.13452   0.13097  -0.0371  0.9852  0.0292  -1.0967   0.0000  -0.0845
  -8.000  -0.0884   0.12949   0.12595  -0.0462  0.9751  0.0296  -1.1283   0.0000  -0.3156
  -7.500  -0.0521   0.12345   0.11993  -0.0541  0.9641  0.0298  -1.1353   0.0000  -0.8591
  -7.000  -0.0156   0.11701   0.11350  -0.0615  0.9521  0.0299  -1.1373   0.0000  -3.9237
  -6.500   0.0223   0.11030   0.10680  -0.0688  0.9398  0.0300  -1.1399   0.0000   3.4849
  -6.000   0.0580   0.09854   0.09509  -0.0737  0.9290  0.0316  -1.1367   0.0000   1.5769
  -5.500   0.0951   0.09164   0.08820  -0.0759  0.9122  0.0332  -1.0124   0.0000   1.0786
  -5.000   0.1254   0.08592   0.08253  -0.0786  0.8917  0.0351  -0.9523   0.0000   0.8980
  -4.500   0.1482   0.08067   0.07732  -0.0801  0.8660  0.0372  -0.9252   0.0000   0.8056
  -3.500   0.2881   0.06570   0.06207  -0.1119  0.7819  0.0459  -0.9691   0.0000   0.6442
  -3.000   0.3928   0.05385   0.04963  -0.1327  0.7016  0.0501  -0.9549   0.0000   0.5916
  -2.500   0.4514   0.04945   0.04469  -0.1404  0.6315  0.0565  -0.9979   0.0000   0.5634
  -1.500   0.7567   0.02874   0.02266  -0.2118  0.5530  0.0771  -1.1734   0.0000   0.5299
  -1.000   1.0167   0.01929   0.01075  -0.2597  0.5216  0.0590  -1.3392   0.0000   0.5047
  -0.500   1.0972   0.01864   0.00980  -0.2644  0.5047  0.0591  -1.4096   0.0000   0.4894
   0.000   1.1915   0.01864   0.00985  -0.2723  0.4875  0.2712  -1.4898   0.0000   0.4762
   0.500   1.2395   0.01952   0.01090  -0.2702  0.4773  0.3563  -1.5473   0.0000   0.4648
   1.000   1.2997   0.01994   0.01124  -0.2709  0.4673  0.3871  -1.6146   0.0000   0.4544
   1.500   1.3668   0.02072   0.01179  -0.2732  0.4570  0.4160  -1.6865   0.0000   0.4450
   2.000   1.4296   0.02146   0.01260  -0.2746  0.4501  0.4550  -1.7544   0.0000   0.4364
   2.500   1.4868   0.02190   0.01323  -0.2747  0.4430  0.5163  -1.8200   0.0000   0.4283
   3.000   1.5436   0.02244   0.01398  -0.2747  0.4355  0.6181  -1.8859   0.0000   0.4207
   3.500   1.5906   0.02284   0.01469  -0.2725  0.4294  0.8162  -1.9464   0.0000   0.4131
   4.000   1.6382   0.02364   0.01539  -0.2708  0.4232  1.0000  -2.0123   0.0000   0.4063
   4.500   1.6977   0.02547   0.01724  -0.2720  0.4164  1.0000  -2.0854   0.0000   0.4003
   5.000   1.7469   0.02633   0.01817  -0.2707  0.4126  1.0000  -2.1608   0.0000   0.3942
   5.500   1.7936   0.02722   0.01915  -0.2689  0.4066  1.0000  -2.2381   0.0000   0.3883
   6.000   1.8412   0.02831   0.02031  -0.2674  0.4009  1.0000  -2.3275   0.0000   0.3827
   6.500   1.8888   0.02925   0.02126  -0.2659  0.3945  1.0000  -2.4225   0.0000   0.3773
   7.000   1.9387   0.03039   0.02236  -0.2650  0.3880  1.0000  -2.5267   0.0000   0.3722
   7.500   1.9834   0.03273   0.02500  -0.2635  0.3806  1.0000  -2.6385   0.0000   0.3674
   8.000   2.0190   0.03356   0.02606  -0.2597  0.3752  1.0000  -2.7761   0.0000   0.3622
   8.500   2.0526   0.03461   0.02733  -0.2557  0.3681  1.0000  -2.9269   0.0000   0.3571
   9.000   2.0895   0.03556   0.02840  -0.2523  0.3612  1.0000  -3.0867   0.0000   0.3522
   9.500   2.1332   0.03622   0.02900  -0.2501  0.3532  1.0000  -3.2640   0.0000   0.3477
  10.000   2.1616   0.03831   0.03143  -0.2457  0.3450  1.0000  -3.4122   0.0000   0.3430
  10.500   2.1661   0.03948   0.03293  -0.2364  0.3380  1.0000  -3.5203   0.0000   0.3375
  11.000   2.1787   0.04014   0.03375  -0.2287  0.3289  1.0000  -3.6477   0.0000   0.3322
  11.500   2.2075   0.04049   0.03403  -0.2239  0.3191  1.0000  -3.8160   0.0000   0.3275
  12.000   2.2119   0.04275   0.03659  -0.2160  0.3108  1.0000  -3.9429   0.0000   0.3226
  12.500   2.2056   0.04519   0.03940  -0.2069  0.3025  1.0000  -4.0473   0.0000   0.3176
  13.000   2.2115   0.04710   0.04149  -0.2001  0.2932  1.0000  -4.1810   0.0000   0.3131
  13.500   2.2269   0.04906   0.04354  -0.1950  0.2826  1.0000  -4.3367   0.0000   0.3089
  14.000   2.2007   0.05395   0.04893  -0.1865  0.2734  1.0000  -4.3919   0.0000   0.3048
  14.500   2.1928   0.05817   0.05334  -0.1812  0.2613  1.0000  -4.4900   0.0000   0.3014


