XFLR5 v6.09.05 beta

 Calculated polar for: S1223

 1 1 Reynolds number fixed          Mach number fixed         

 xtrf =   1.000 (top)        1.000 (bottom)
 Mach =   0.000     Re =     0.015 e 6     Ncrit =   9.000

  alpha     CL        CD       CDp       Cm    Top Xtr Bot Xtr   Cpmin    Chinge    XCp    
 ------- -------- --------- --------- -------- ------- ------- -------- --------- ---------
 -15.000  -0.2922   0.21747   0.20339  -0.0214  1.0000  0.2718  -0.8490   0.0000   0.1531
 -14.500  -0.3010   0.22556   0.21162  -0.0216  1.0000  0.2760  -0.8840   0.0000   0.1562
 -14.000  -0.2684   0.20540   0.19157  -0.0226  1.0000  0.2846  -0.8428   0.0000   0.1417
 -13.500  -0.2505   0.19761   0.18390  -0.0226  1.0000  0.2981  -0.8232   0.0000   0.1346
 -13.000  -0.2461   0.19678   0.18325  -0.0225  1.0000  0.3111  -0.8303   0.0000   0.1339
 -12.500  -0.2607   0.20525   0.19201  -0.0216  1.0000  0.3169  -0.8683   0.0000   0.1450
 -12.000  -0.2222   0.18456   0.17143  -0.0223  1.0000  0.3299  -0.8196   0.0000   0.1239
 -11.500  -0.2105   0.17984   0.16688  -0.0216  1.0000  0.3477  -0.8105   0.0000   0.1212
 -11.000  -0.2260   0.18667   0.17403  -0.0197  1.0000  0.3590  -0.8435   0.0000   0.1395
 -10.500  -0.1914   0.16990   0.15742  -0.0200  1.0000  0.3778  -0.8024   0.0000   0.1192
 -10.000  -0.1942   0.17047   0.15817  -0.0179  1.0000  0.4004  -0.8116   0.0000   0.1331
  -9.500  -0.1769   0.16141   0.14935  -0.0170  1.0000  0.4192  -0.7959   0.0000   0.1278
  -9.000  -0.1811   0.16196   0.15019  -0.0139  1.0000  0.4473  -0.8031   0.0000   0.1486
  -8.500  -0.1578   0.15143   0.13990  -0.0130  1.0000  0.4758  -0.7792   0.0000   0.1411
  -8.000  -0.1865   0.15888   0.14777  -0.0073  1.0000  0.4980  -0.8119   0.0000   0.1895
  -7.500  -0.1580   0.14684   0.13595  -0.0063  1.0000  0.5416  -0.7818   0.0000   0.1864
  -7.000  -0.1404   0.13883   0.12822  -0.0044  1.0000  0.5825  -0.7652   0.0000   0.1936
  -6.500  -0.1313   0.13361   0.12333  -0.0014  1.0000  0.6289  -0.7573   0.0000   0.2144
  -6.000  -0.1354   0.13201   0.12209   0.0038  1.0000  0.6859  -0.7595   0.0000   0.2557
  -5.000   0.0796   0.09904   0.08882  -0.0286  1.0000  1.0000  -0.7565   0.0000   0.6416
  -4.500   0.0753   0.09792   0.08813  -0.0259  1.0000  1.0000  -0.7566   0.0000   0.6252
  -4.000   0.0650   0.09780   0.08845  -0.0227  1.0000  1.0000  -0.7492   0.0000   0.6324
  -3.500   0.0485   0.09874   0.08982  -0.0192  1.0000  1.0000  -0.7331   0.0000   0.6863
  -3.000   0.0296   0.10023   0.09169  -0.0160  1.0000  1.0000  -0.7102   0.0000   0.8521
  -2.500   0.0124   0.10154   0.09332  -0.0134  1.0000  1.0000  -0.7163   0.0000   1.4678
  -2.000  -0.0017   0.10238   0.09443  -0.0113  1.0000  1.0000  -0.7313   0.0000  -7.2906
  -1.500  -0.0133   0.10277   0.09504  -0.0097  1.0000  1.0000  -0.7453   0.0000  -0.6049
  -1.000  -0.0229   0.10277   0.09525  -0.0084  1.0000  1.0000  -0.7582   0.0000  -0.1840
  -0.500  -0.0310   0.10245   0.09511  -0.0072  1.0000  1.0000  -0.7703   0.0000  -0.0291
   0.000  -0.0382   0.10187   0.09470  -0.0062  1.0000  1.0000  -0.7817   0.0000   0.0534
   0.500  -0.0618   0.10120   0.09422  -0.0011  1.0000  0.9930  -0.8006   0.0000   0.2120
   1.000  -0.1291   0.10078   0.09407   0.0139  1.0000  0.9625  -0.8427   0.0000   0.3478
   1.500  -0.1949   0.10019   0.09373   0.0276  1.0000  0.9256  -0.8873   0.0000   0.3846
   2.000  -0.2666   0.09959   0.09339   0.0417  1.0000  0.8901  -0.9387   0.0000   0.4008
   2.500  -0.3156   0.09778   0.09176   0.0487  1.0000  0.8372  -0.9813   0.0000   0.3990
   3.000  -0.2148   0.09950   0.09310   0.0038  1.0000  0.6291  -0.9831   0.0000   0.2613
   3.500   0.0704   0.10154   0.09397  -0.0778  1.0000  0.4444  -0.8839   0.0000   1.3573
   4.000   0.2104   0.10384   0.09579  -0.1086  1.0000  0.4418  -0.7922   0.0000   0.7626
   4.500   0.3482   0.10904   0.10052  -0.1354  1.0000  0.5050  -0.8177   0.0000   0.6336
   5.000   0.4316   0.11267   0.10417  -0.1424  1.0000  0.7381  -0.9164   0.0000   0.5731
   6.000   0.6627   0.13177   0.12040  -0.1918  1.0000  1.0000  -0.7660   0.0000   0.5310
   6.500   0.7083   0.13932   0.12706  -0.1984  1.0000  1.0000  -0.7913   0.0000   0.5208
   7.000   0.7437   0.14615   0.13327  -0.2024  1.0000  1.0000  -0.8093   0.0000   0.5120
   7.500   0.7749   0.15279   0.13945  -0.2056  1.0000  1.0000  -0.8315   0.0000   0.5041
   8.000   0.8038   0.15941   0.14572  -0.2083  1.0000  1.0000  -0.8513   0.0000   0.4971
   8.500   0.8311   0.16606   0.15212  -0.2109  1.0000  1.0000  -0.8679   0.0000   0.4908
   9.000   0.8572   0.17280   0.15874  -0.2134  1.0000  1.0000  -0.8882   0.0000   0.4850
   9.500   0.8821   0.17962   0.16540  -0.2159  1.0000  1.0000  -0.9086   0.0000   0.4798
  10.000   0.9061   0.18654   0.17223  -0.2183  1.0000  1.0000  -0.9258   0.0000   0.4751
  10.500   0.9352   0.19283   0.17849  -0.2222  0.9895  1.0000  -0.9534   0.0000   0.4708
  11.000   0.9661   0.19956   0.18523  -0.2266  0.9718  1.0000  -0.9817   0.0000   0.4668
  11.500   0.9963   0.20568   0.19140  -0.2306  0.9451  1.0000  -1.0096   0.0000   0.4628
  12.000   1.0187   0.20925   0.19504  -0.2331  0.9211  1.0000  -1.0377   0.0000   0.4592
  12.500   1.0435   0.21488   0.20077  -0.2361  0.8958  1.0000  -1.0660   0.0000   0.4557
  13.000   1.0738   0.22354   0.20976  -0.2398  0.8643  1.0000  -1.1089   0.0000   0.4518
  13.500   1.1005   0.23219   0.21854  -0.2429  0.8361  1.0000  -1.1476   0.0000   0.4483
  14.000   1.1184   0.23747   0.22396  -0.2448  0.8109  1.0000  -1.1724   0.0000   0.4454
  14.500   1.1408   0.24558   0.23223  -0.2471  0.7802  1.0000  -1.2140   0.0000   0.4422
  15.000   1.1569   0.25204   0.23885  -0.2488  0.7527  1.0000  -1.2439   0.0000   0.4396
  15.500   1.1730   0.26029   0.24728  -0.2508  0.7306  1.0000  -1.2689   0.0000   0.4373
  16.000   1.1938   0.27113   0.25832  -0.2530  0.7025  1.0000  -1.2972   0.0000   0.4344
  16.500   1.2240   0.28874   0.27616  -0.2560  0.6730  1.0000  -1.3343   0.0000   0.4307
  17.000   1.2201   0.28689   0.27453  -0.2559  0.6492  1.0000  -1.3182   0.0000   0.4301
  17.500   1.2302   0.29611   0.28438  -0.2572  0.6264  1.0000  -1.3350   0.0000   0.4283
  18.000   1.2591   0.31570   0.30423  -0.2599  0.6004  1.0000  -1.3800   0.0000   0.4246
  18.500   1.2492   0.31484   0.30361  -0.2596  0.5788  1.0000  -1.3569   0.0000   0.4248
  19.000   1.2671   0.33116   0.32016  -0.2616  0.5616  1.0000  -1.3743   0.0000   0.4223
  19.500   1.2690   0.33772   0.32701  -0.2615  0.5335  1.0000  -1.3652   0.0000   0.4208
  20.000   1.2650   0.34723   0.33674  -0.2618  0.5211  1.0000  -1.3444   0.0000   0.4205
  20.500   1.2601   0.35522   0.34504  -0.2610  0.4998  1.0000  -1.3384   0.0000   0.4194
  21.000   1.2716   0.37210   0.36216  -0.2623  0.4880  1.0000  -1.3559   0.0000   0.4174
  21.500   1.1786   0.36325   0.35401  -0.2441  0.4577  1.0000  -1.2014   0.0000   0.4179
  22.500   1.0844   0.34704   0.33863  -0.2280  0.4262  1.0000  -1.0480   0.0000   0.4196


