XFLR5 v6.09.05 beta

 Calculated polar for: S1223

 1 1 Reynolds number fixed          Mach number fixed         

 xtrf =   1.000 (top)        1.000 (bottom)
 Mach =   0.000     Re =     0.105 e 6     Ncrit =   9.000

  alpha     CL        CD       CDp       Cm    Top Xtr Bot Xtr   Cpmin    Chinge    XCp    
 ------- -------- --------- --------- -------- ------- ------- -------- --------- ---------
 -15.000  -0.2890   0.19455   0.18911  -0.0205  1.0000  0.0337  -1.0117   0.0000   0.1562
 -14.500  -0.2771   0.18970   0.18429  -0.0212  1.0000  0.0343  -0.9976   0.0000   0.1507
 -14.000  -0.2656   0.18496   0.17960  -0.0218  1.0000  0.0350  -0.9857   0.0000   0.1453
 -13.500  -0.2546   0.18031   0.17501  -0.0222  1.0000  0.0357  -0.9758   0.0000   0.1400
 -13.000  -0.2441   0.17575   0.17052  -0.0225  1.0000  0.0365  -0.9677   0.0000   0.1351
 -12.500  -0.2342   0.17128   0.16613  -0.0226  1.0000  0.0373  -0.9614   0.0000   0.1306
 -12.000  -0.2250   0.16693   0.16185  -0.0226  1.0000  0.0382  -0.9571   0.0000   0.1267
 -11.500  -0.2165   0.16271   0.15771  -0.0225  1.0000  0.0392  -0.9557   0.0000   0.1237
 -11.000  -0.2089   0.15864   0.15372  -0.0222  1.0000  0.0403  -0.9570   0.0000   0.1217
 -10.500  -0.2023   0.15473   0.14991  -0.0217  1.0000  0.0414  -0.9618   0.0000   0.1209
 -10.000  -0.1971   0.15117   0.14645  -0.0212  1.0000  0.0427  -0.9727   0.0000   0.1217
  -9.500  -0.1944   0.14834   0.14370  -0.0206  1.0000  0.0439  -0.9954   0.0000   0.1244
  -9.000  -0.1964   0.14681   0.14229  -0.0199  1.0000  0.0449  -1.0349   0.0000   0.1304
  -8.500  -0.2034   0.14608   0.14170  -0.0189  1.0000  0.0454  -1.0816   0.0000   0.1407
  -8.000  -0.2140   0.14549   0.14127  -0.0174  1.0000  0.0457  -1.1276   0.0000   0.1543
  -7.500  -0.1871   0.14209   0.13792  -0.0258  0.9918  0.0460  -1.1608   0.0000   0.0956
  -7.000  -0.1397   0.13581   0.13164  -0.0378  0.9756  0.0463  -1.1684   0.0000  -0.0425
  -6.500  -0.0766   0.11836   0.11422  -0.0421  0.9657  0.0495  -1.0046   0.0000  -0.3389
  -5.500   0.0190   0.10392   0.09982  -0.0582  0.9301  0.0571  -0.8843   0.0000   3.4697
  -5.000   0.0576   0.09828   0.09417  -0.0667  0.9078  0.0623  -0.8948   0.0000   1.4525
  -4.500   0.0851   0.09585   0.09178  -0.0781  0.8676  0.0652  -0.9953   0.0000   1.1942
  -4.000   0.1236   0.08487   0.08086  -0.0819  0.8433  0.0676  -0.9693   0.0000   0.9289
  -3.500   0.1732   0.07677   0.07275  -0.0822  0.8176  0.0736  -0.8222   0.0000   0.7342
  -3.000   0.2980   0.06904   0.06475  -0.1172  0.7794  0.0877  -0.8846   0.0000   0.6478
  -2.500   0.3622   0.05821   0.05367  -0.1184  0.7392  0.0974  -0.9424   0.0000   0.5798
  -2.000   0.4835   0.04996   0.04486  -0.1440  0.6826  0.1201  -1.0142   0.0000   0.5491
  -1.500   0.6089   0.04346   0.03773  -0.1669  0.6397  0.1508  -1.0970   0.0000   0.5245
  -1.000   1.0161   0.02243   0.01349  -0.2609  0.5935  0.0813  -1.3224   0.0000   0.5063
  -0.500   1.1010   0.02192   0.01244  -0.2663  0.5706  0.0879  -1.3921   0.0000   0.4905
   0.000   1.1750   0.02290   0.01401  -0.2694  0.5528  0.3678  -1.4575   0.0000   0.4772
   0.500   1.2244   0.02384   0.01492  -0.2673  0.5371  0.4278  -1.5153   0.0000   0.4654
   1.000   1.2949   0.02482   0.01556  -0.2705  0.5242  0.4607  -1.5851   0.0000   0.4552
   1.500   1.3536   0.02552   0.01627  -0.2712  0.5139  0.4934  -1.6459   0.0000   0.4458
   2.000   1.4146   0.02630   0.01708  -0.2723  0.5041  0.5405  -1.7097   0.0000   0.4371
   2.500   1.4740   0.02734   0.01810  -0.2729  0.4952  0.6146  -1.7733   0.0000   0.4290
   3.000   1.5233   0.02866   0.01968  -0.2716  0.4867  0.7397  -1.8289   0.0000   0.4213
   3.500   1.5575   0.02930   0.02058  -0.2673  0.4797  1.0000  -1.8777   0.0000   0.4139
   4.000   1.6094   0.03091   0.02212  -0.2670  0.4722  1.0000  -1.9410   0.0000   0.4073
   4.500   1.6601   0.03255   0.02370  -0.2664  0.4653  1.0000  -2.0112   0.0000   0.4010
   5.000   1.7124   0.03444   0.02560  -0.2660  0.4587  1.0000  -2.0860   0.0000   0.3950
   5.500   1.7543   0.03737   0.02860  -0.2642  0.4512  1.0000  -2.1558   0.0000   0.3894
   6.000   1.7864   0.03949   0.03100  -0.2603  0.4450  1.0000  -2.2234   0.0000   0.3837
   6.500   1.8174   0.04194   0.03369  -0.2565  0.4378  1.0000  -2.2920   0.0000   0.3782
   7.000   1.8526   0.04389   0.03575  -0.2531  0.4296  1.0000  -2.3737   0.0000   0.3728
   7.500   1.8970   0.04593   0.03778  -0.2515  0.4227  1.0000  -2.4795   0.0000   0.3677
   8.000   1.9194   0.05016   0.04244  -0.2469  0.4150  1.0000  -2.5615   0.0000   0.3629
   8.500   1.8958   0.05465   0.04748  -0.2351  0.4071  1.0000  -2.5916   0.0000   0.3574
   9.000   1.8462   0.06086   0.05411  -0.2206  0.3986  1.0000  -2.5842   0.0000   0.3520
   9.500   1.8968   0.06124   0.05450  -0.2192  0.3901  1.0000  -2.7631   0.0000   0.3470
  10.000   1.9628   0.06355   0.05674  -0.2212  0.3815  1.0000  -2.9710   0.0000   0.3430


