XFLR5 v6.09.05 beta

 Calculated polar for: S1223

 1 1 Reynolds number fixed          Mach number fixed         

 xtrf =   1.000 (top)        1.000 (bottom)
 Mach =   0.000     Re =     0.100 e 6     Ncrit =   9.000

  alpha     CL        CD       CDp       Cm    Top Xtr Bot Xtr   Cpmin    Chinge    XCp    
 ------- -------- --------- --------- -------- ------- ------- -------- --------- ---------
 -15.000  -0.2877   0.19467   0.18910  -0.0204  1.0000  0.0357  -0.9806   0.0000   0.1562
 -14.500  -0.2759   0.18991   0.18435  -0.0212  1.0000  0.0364  -0.9705   0.0000   0.1504
 -14.000  -0.2646   0.18521   0.17972  -0.0218  1.0000  0.0371  -0.9635   0.0000   0.1447
 -13.500  -0.2537   0.18059   0.17516  -0.0223  1.0000  0.0379  -0.9578   0.0000   0.1392
 -13.000  -0.2432   0.17606   0.17069  -0.0227  1.0000  0.0388  -0.9537   0.0000   0.1340
 -12.500  -0.2334   0.17163   0.16634  -0.0229  1.0000  0.0397  -0.9515   0.0000   0.1292
 -12.000  -0.2243   0.16734   0.16213  -0.0230  1.0000  0.0408  -0.9517   0.0000   0.1250
 -11.500  -0.2160   0.16327   0.15814  -0.0229  1.0000  0.0419  -0.9565   0.0000   0.1215
 -11.000  -0.2089   0.15957   0.15452  -0.0228  1.0000  0.0431  -0.9676   0.0000   0.1189
 -10.500  -0.2040   0.15665   0.15170  -0.0227  1.0000  0.0442  -0.9907   0.0000   0.1174
 -10.000  -0.2031   0.15494   0.15012  -0.0226  1.0000  0.0450  -1.0281   0.0000   0.1189
  -9.500  -0.2061   0.15382   0.14912  -0.0221  1.0000  0.0455  -1.0705   0.0000   0.1242
  -9.000  -0.2117   0.15271   0.14811  -0.0212  1.0000  0.0458  -1.1123   0.0000   0.1330
  -8.500  -0.2185   0.15130   0.14684  -0.0199  1.0000  0.0459  -1.1499   0.0000   0.1437
  -8.000  -0.2253   0.14943   0.14512  -0.0182  1.0000  0.0461  -1.1809   0.0000   0.1555
  -7.500  -0.2064   0.14562   0.14140  -0.0232  0.9946  0.0462  -1.1968   0.0000   0.1233
  -7.000  -0.1381   0.12733   0.12312  -0.0292  0.9853  0.0491  -1.0377   0.0000   0.0163
  -6.500  -0.0811   0.11918   0.11497  -0.0389  0.9713  0.0525  -0.9448   0.0000  -0.2678
  -6.000  -0.0359   0.11221   0.10802  -0.0474  0.9511  0.0563  -0.9049   0.0000  -1.1537
  -5.500   0.0079   0.10592   0.10174  -0.0568  0.9306  0.0612  -0.8983   0.0000   7.8331
  -5.000   0.0276   0.10423   0.10011  -0.0659  0.8972  0.0647  -0.9874   0.0000   2.7298
  -4.500   0.0793   0.09720   0.09308  -0.0801  0.8669  0.0658  -1.0395   0.0000   1.2894
  -3.500   0.1683   0.07808   0.07399  -0.0809  0.8191  0.0787  -0.8187   0.0000   0.7405
  -3.000   0.2621   0.06882   0.06459  -0.1085  0.7833  0.0895  -0.8788   0.0000   0.6692
  -2.500   0.3460   0.05994   0.05541  -0.1141  0.7457  0.1028  -0.9328   0.0000   0.5829
  -2.000   0.4598   0.05173   0.04670  -0.1368  0.6928  0.1236  -1.0017   0.0000   0.5490
  -1.500   0.5779   0.04515   0.03959  -0.1588  0.6496  0.1534  -1.0789   0.0000   0.5251
  -1.000   1.0184   0.02288   0.01381  -0.2615  0.6009  0.0839  -1.3226   0.0000   0.5063
  -0.500   1.1003   0.02208   0.01268  -0.2664  0.5781  0.0926  -1.3888   0.0000   0.4908
   0.000   1.1711   0.02350   0.01465  -0.2685  0.5599  0.3785  -1.4532   0.0000   0.4773
   0.500   1.2203   0.02436   0.01548  -0.2665  0.5440  0.4349  -1.5093   0.0000   0.4656
   1.000   1.2914   0.02521   0.01593  -0.2698  0.5300  0.4682  -1.5807   0.0000   0.4552
   1.500   1.3534   0.02614   0.01680  -0.2713  0.5201  0.5014  -1.6427   0.0000   0.4460
   2.000   1.4116   0.02698   0.01775  -0.2719  0.5102  0.5489  -1.7027   0.0000   0.4373
   2.500   1.4672   0.02786   0.01870  -0.2717  0.5012  0.6224  -1.7626   0.0000   0.4291
   3.000   1.5203   0.02928   0.02021  -0.2711  0.4914  0.7535  -1.8237   0.0000   0.4213
   3.500   1.5560   0.03018   0.02133  -0.2673  0.4850  1.0000  -1.8725   0.0000   0.4140
   4.000   1.6051   0.03190   0.02305  -0.2666  0.4779  1.0000  -1.9320   0.0000   0.4075
   4.500   1.6517   0.03374   0.02492  -0.2652  0.4707  1.0000  -1.9972   0.0000   0.4012
   5.000   1.6995   0.03557   0.02684  -0.2641  0.4639  1.0000  -2.0666   0.0000   0.3951
   5.500   1.7516   0.03788   0.02900  -0.2638  0.4559  1.0000  -2.1502   0.0000   0.3894
   6.000   1.7822   0.04093   0.03231  -0.2601  0.4497  1.0000  -2.2146   0.0000   0.3839
   6.500   1.8049   0.04375   0.03546  -0.2549  0.4430  1.0000  -2.2720   0.0000   0.3784
   7.000   1.8320   0.04627   0.03818  -0.2505  0.4344  1.0000  -2.3411   0.0000   0.3730
   7.500   1.8634   0.04871   0.04075  -0.2468  0.4270  1.0000  -2.4269   0.0000   0.3678
   8.000   1.9145   0.05124   0.04342  -0.2464  0.4191  1.0000  -2.5507   0.0000   0.3630
   8.500   1.8790   0.05723   0.04999  -0.2334  0.4116  1.0000  -2.5561   0.0000   0.3577
  10.000   1.7936   0.07515   0.06874  -0.2036  0.3853  1.0000  -2.6417   0.0000   0.3441


