XFLR5 v6.09.05 beta

 Calculated polar for: S1223

 1 1 Reynolds number fixed          Mach number fixed         

 xtrf =   1.000 (top)        1.000 (bottom)
 Mach =   0.000     Re =     0.185 e 6     Ncrit =   9.000

  alpha     CL        CD       CDp       Cm    Top Xtr Bot Xtr   Cpmin    Chinge    XCp    
 ------- -------- --------- --------- -------- ------- ------- -------- --------- ---------
 -14.500  -0.2836   0.18787   0.18379  -0.0185  1.0000  0.0220  -1.0379   0.0000   0.1627
 -14.000  -0.2725   0.18318   0.17915  -0.0191  1.0000  0.0223  -1.0339   0.0000   0.1579
 -13.500  -0.2619   0.17855   0.17457  -0.0195  1.0000  0.0226  -1.0305   0.0000   0.1534
 -13.000  -0.2517   0.17400   0.17006  -0.0198  1.0000  0.0229  -1.0276   0.0000   0.1493
 -12.500  -0.2422   0.16953   0.16565  -0.0199  1.0000  0.0233  -1.0255   0.0000   0.1459
 -12.000  -0.2333   0.16517   0.16135  -0.0199  1.0000  0.0237  -1.0242   0.0000   0.1431
 -11.500  -0.2252   0.16093   0.15717  -0.0197  1.0000  0.0241  -1.0240   0.0000   0.1413
 -11.000  -0.2179   0.15683   0.15314  -0.0193  1.0000  0.0246  -1.0252   0.0000   0.1407
 -10.500  -0.2116   0.15284   0.14922  -0.0187  1.0000  0.0251  -1.0282   0.0000   0.1414
 -10.000  -0.2065   0.14900   0.14547  -0.0179  1.0000  0.0256  -1.0336   0.0000   0.1438
  -9.500  -0.2027   0.14537   0.14189  -0.0168  1.0000  0.0262  -1.0418   0.0000   0.1480
  -9.000  -0.1558   0.13827   0.13477  -0.0276  0.9931  0.0275  -1.0387   0.0000   0.0476
  -8.500  -0.1150   0.13231   0.12880  -0.0373  0.9846  0.0286  -1.0609   0.0000  -0.1087
  -8.000  -0.0802   0.12752   0.12402  -0.0466  0.9748  0.0293  -1.0990   0.0000  -0.3792
  -7.500  -0.0462   0.12217   0.11867  -0.0550  0.9635  0.0297  -1.1236   0.0000  -1.0228
  -7.000  -0.0101   0.11597   0.11249  -0.0623  0.9515  0.0299  -1.1264   0.0000  -6.2570
  -6.500   0.0268   0.10943   0.10598  -0.0694  0.9390  0.0300  -1.1292   0.0000   2.9607
  -6.000   0.0666   0.10219   0.09878  -0.0771  0.9271  0.0301  -1.1409   0.0000   1.4553
  -5.500   0.0955   0.09128   0.08788  -0.0776  0.9111  0.0323  -1.0708   0.0000   1.0932
  -5.000   0.1269   0.08538   0.08202  -0.0796  0.8909  0.0340  -0.9820   0.0000   0.8976
  -4.500   0.1503   0.08013   0.07680  -0.0807  0.8652  0.0359  -0.9410   0.0000   0.8023
  -3.500   0.2930   0.06463   0.06100  -0.1123  0.7796  0.0455  -0.9557   0.0000   0.6392
  -3.000   0.4019   0.05286   0.04862  -0.1366  0.6948  0.0491  -0.9573   0.0000   0.5936
  -2.500   0.4516   0.04910   0.04435  -0.1408  0.6268  0.0544  -0.9977   0.0000   0.5641
  -2.000   0.5823   0.03887   0.03358  -0.1749  0.5836  0.0688  -1.0652   0.0000   0.5513
  -1.500   0.7233   0.03112   0.02525  -0.2032  0.5510  0.0931  -1.1579   0.0000   0.5308
  -1.000   1.0157   0.01909   0.01061  -0.2595  0.5190  0.0579  -1.3392   0.0000   0.5047
  -0.500   1.0970   0.01850   0.00968  -0.2643  0.5018  0.0580  -1.4104   0.0000   0.4894
   0.000   1.1907   0.01839   0.00969  -0.2722  0.4854  0.2645  -1.4902   0.0000   0.4762
   0.500   1.2396   0.01926   0.01069  -0.2702  0.4748  0.3523  -1.5483   0.0000   0.4648
   1.000   1.2999   0.01975   0.01106  -0.2709  0.4647  0.3839  -1.6160   0.0000   0.4544
   1.500   1.3709   0.02078   0.01184  -0.2741  0.4534  0.4131  -1.6896   0.0000   0.4451
   2.000   1.4280   0.02119   0.01238  -0.2741  0.4483  0.4503  -1.7546   0.0000   0.4363
   2.500   1.4860   0.02163   0.01299  -0.2745  0.4408  0.5114  -1.8211   0.0000   0.4282
   3.000   1.5434   0.02216   0.01372  -0.2746  0.4333  0.6121  -1.8879   0.0000   0.4206
   3.500   1.5921   0.02262   0.01446  -0.2728  0.4272  0.8030  -1.9495   0.0000   0.4132
   4.000   1.6413   0.02362   0.01538  -0.2715  0.4203  1.0000  -2.0159   0.0000   0.4064
   4.500   1.6972   0.02502   0.01686  -0.2718  0.4152  1.0000  -2.0867   0.0000   0.4002
   5.000   1.7465   0.02590   0.01782  -0.2705  0.4109  1.0000  -2.1622   0.0000   0.3941
   5.500   1.7939   0.02679   0.01877  -0.2689  0.4046  1.0000  -2.2401   0.0000   0.3882
   6.000   1.8422   0.02783   0.01986  -0.2675  0.3990  1.0000  -2.3306   0.0000   0.3826
   6.500   1.8907   0.02875   0.02077  -0.2662  0.3927  1.0000  -2.4269   0.0000   0.3772
   7.000   1.9416   0.03021   0.02217  -0.2656  0.3858  1.0000  -2.5314   0.0000   0.3722
   7.500   1.9838   0.03208   0.02441  -0.2634  0.3794  1.0000  -2.6409   0.0000   0.3673
   8.000   2.0194   0.03296   0.02551  -0.2596  0.3735  1.0000  -2.7790   0.0000   0.3621
   8.500   2.0547   0.03396   0.02670  -0.2559  0.3665  1.0000  -2.9328   0.0000   0.3571
   9.000   2.0933   0.03482   0.02764  -0.2527  0.3597  1.0000  -3.0961   0.0000   0.3522
   9.500   2.1383   0.03585   0.02860  -0.2510  0.3511  1.0000  -3.2753   0.0000   0.3478
  10.000   2.1612   0.03761   0.03077  -0.2454  0.3439  1.0000  -3.4140   0.0000   0.3429
  10.500   2.1670   0.03873   0.03220  -0.2363  0.3366  1.0000  -3.5248   0.0000   0.3374
  11.000   2.1829   0.03925   0.03283  -0.2291  0.3274  1.0000  -3.6591   0.0000   0.3322
  11.500   2.2172   0.03998   0.03345  -0.2255  0.3165  1.0000  -3.8392   0.0000   0.3278
  12.000   2.2119   0.04216   0.03604  -0.2158  0.3098  1.0000  -3.9458   0.0000   0.3225
  12.500   2.2096   0.04444   0.03866  -0.2073  0.3012  1.0000  -4.0593   0.0000   0.3176
  13.000   2.2171   0.04626   0.04064  -0.2006  0.2920  1.0000  -4.1971   0.0000   0.3131
  13.500   2.2273   0.04862   0.04315  -0.1950  0.2818  1.0000  -4.3403   0.0000   0.3089
  14.000   2.2059   0.05320   0.04819  -0.1870  0.2720  1.0000  -4.4071   0.0000   0.3048
  14.500   2.2007   0.05717   0.05230  -0.1818  0.2598  1.0000  -4.5125   0.0000   0.3013
  15.000   2.1836   0.06343   0.05881  -0.1773  0.2470  1.0000  -4.5827   0.0000   0.2985


