XFLR5 v6.09.05 beta

 Calculated polar for: S1223

 1 1 Reynolds number fixed          Mach number fixed         

 xtrf =   1.000 (top)        1.000 (bottom)
 Mach =   0.000     Re =     0.285 e 6     Ncrit =   9.000

  alpha     CL        CD       CDp       Cm    Top Xtr Bot Xtr   Cpmin    Chinge    XCp    
 ------- -------- --------- --------- -------- ------- ------- -------- --------- ---------
 -15.000  -0.3042   0.19954   0.19625  -0.0183  1.0000  0.0171  -1.1958   0.0000   0.1687
 -14.500  -0.2934   0.19468   0.19142  -0.0190  1.0000  0.0171  -1.1980   0.0000   0.1642
 -14.000  -0.2830   0.18988   0.18663  -0.0196  1.0000  0.0171  -1.2010   0.0000   0.1599
 -13.500  -0.2732   0.18516   0.18195  -0.0200  1.0000  0.0171  -1.2051   0.0000   0.1561
 -13.000  -0.2639   0.18054   0.17737  -0.0203  1.0000  0.0171  -1.2104   0.0000   0.1528
 -12.500  -0.2553   0.17600   0.17288  -0.0203  1.0000  0.0171  -1.2162   0.0000   0.1500
 -12.000  -0.2473   0.17159   0.16851  -0.0202  1.0000  0.0171  -1.2230   0.0000   0.1482
 -11.500  -0.2403   0.16729   0.16426  -0.0200  1.0000  0.0171  -1.2307   0.0000   0.1473
  -8.000  -0.0076   0.11393   0.11092  -0.0635  0.9628  0.0189  -1.1702   0.0000  -8.6433
  -7.000   0.0659   0.10110   0.09814  -0.0753  0.9467  0.0203  -1.0548   0.0000   1.4527
  -6.500   0.0941   0.09543   0.09249  -0.0790  0.9336  0.0211  -1.0227   0.0000   1.1283
  -5.500   0.1616   0.08334   0.08042  -0.0890  0.9069  0.0233  -0.9754   0.0000   0.8198
  -5.000   0.1687   0.07929   0.07641  -0.0869  0.8751  0.0242  -0.9802   0.0000   0.7813
  -4.500   0.2041   0.07317   0.07024  -0.0924  0.8413  0.0258  -0.9799   0.0000   0.7145
  -3.500   0.3922   0.05683   0.05274  -0.1356  0.6610  0.0300  -1.0121   0.0000   0.6009
  -3.000   0.4239   0.05209   0.04761  -0.1403  0.5984  0.0301  -1.0392   0.0000   0.5845
  -2.500   0.4542   0.04507   0.04039  -0.1452  0.5626  0.0334  -1.0302   0.0000   0.5721
  -2.000   0.5239   0.04004   0.03511  -0.1568  0.5334  0.0381  -1.0435   0.0000   0.5503
  -1.000   1.0124   0.01661   0.00860  -0.2580  0.4795  0.0370  -1.3450   0.0000   0.5040
  -0.500   1.0785   0.01668   0.00845  -0.2599  0.4640  0.0450  -1.4096   0.0000   0.4894
   0.000   1.1607   0.01658   0.00807  -0.2652  0.4500  0.0462  -1.4838   0.0000   0.4760
   0.500   1.2390   0.01647   0.00838  -0.2699  0.4410  0.2936  -1.5596   0.0000   0.4645
   1.000   1.2936   0.01701   0.00891  -0.2693  0.4323  0.3407  -1.6250   0.0000   0.4541
   2.000   1.4220   0.01823   0.00998  -0.2725  0.4155  0.3990  -1.7682   0.0000   0.4359
   2.500   1.4778   0.01854   0.01041  -0.2723  0.4104  0.4476  -1.8355   0.0000   0.4276
   3.000   1.5364   0.01897   0.01103  -0.2728  0.4048  0.5279  -1.9048   0.0000   0.4201
   3.500   1.5944   0.01944   0.01173  -0.2731  0.3991  0.6554  -1.9742   0.0000   0.4129
   4.000   1.6324   0.01956   0.01218  -0.2689  0.3941  1.0000  -2.0304   0.0000   0.4055
   4.500   1.6902   0.02048   0.01302  -0.2694  0.3879  1.0000  -2.1069   0.0000   0.3993
   5.000   1.7522   0.02177   0.01425  -0.2710  0.3813  1.0000  -2.1890   0.0000   0.3937
   5.500   1.7992   0.02230   0.01485  -0.2691  0.3781  1.0000  -2.2660   0.0000   0.3877
   6.000   1.8470   0.02299   0.01562  -0.2675  0.3740  1.0000  -2.3558   0.0000   0.3820
   6.500   1.8923   0.02366   0.01634  -0.2654  0.3685  1.0000  -2.4496   0.0000   0.3765
   7.000   1.9366   0.02436   0.01707  -0.2632  0.3630  1.0000  -2.5466   0.0000   0.3712
   7.500   1.9773   0.02509   0.01792  -0.2602  0.3565  1.0000  -2.6573   0.0000   0.3659
   8.000   2.0357   0.02682   0.01966  -0.2615  0.3475  1.0000  -2.8309   0.0000   0.3617
   8.500   2.0668   0.02741   0.02045  -0.2566  0.3444  1.0000  -2.9799   0.0000   0.3564
   9.000   2.0929   0.02806   0.02128  -0.2508  0.3387  1.0000  -3.1228   0.0000   0.3511
   9.500   2.1210   0.02881   0.02216  -0.2456  0.3320  1.0000  -3.2718   0.0000   0.3460
  10.000   2.1457   0.02957   0.02303  -0.2398  0.3240  1.0000  -3.4184   0.0000   0.3409
  10.500   2.1773   0.03094   0.02445  -0.2359  0.3136  1.0000  -3.5779   0.0000   0.3364
  11.000   2.1941   0.03205   0.02585  -0.2291  0.3081  1.0000  -3.7121   0.0000   0.3314
  11.500   2.2135   0.03338   0.02739  -0.2231  0.3006  1.0000  -3.8645   0.0000   0.3266
  12.000   2.2310   0.03491   0.02903  -0.2172  0.2923  1.0000  -4.0228   0.0000   0.3220
  12.500   2.2473   0.03702   0.03123  -0.2115  0.2824  1.0000  -4.1790   0.0000   0.3176
  13.000   2.2592   0.03917   0.03378  -0.2056  0.2741  1.0000  -4.3265   0.0000   0.3133
  13.500   2.2656   0.04188   0.03662  -0.1996  0.2618  1.0000  -4.4634   0.0000   0.3091
  14.000   2.2642   0.04567   0.04057  -0.1936  0.2460  1.0000  -4.5813   0.0000   0.3053
  14.500   2.2463   0.05147   0.04636  -0.1874  0.2248  1.0000  -4.6585   0.0000   0.3018
  15.000   2.2229   0.05905   0.05403  -0.1828  0.2023  1.0000  -4.7167   0.0000   0.2993
  15.500   2.1902   0.06880   0.06391  -0.1798  0.1822  1.0000  -4.7440   0.0000   0.2977
  16.000   2.1473   0.08096   0.07623  -0.1791  0.1664  1.0000  -4.7350   0.0000   0.2975
  16.500   2.0962   0.09501   0.09045  -0.1805  0.1529  1.0000  -4.6920   0.0000   0.2988
  17.000   2.0529   0.10814   0.10379  -0.1831  0.1410  1.0000  -4.6602   0.0000   0.3004


