XFLR5 v6.09.05 beta

 Calculated polar for: S1223

 1 1 Reynolds number fixed          Mach number fixed         

 xtrf =   1.000 (top)        1.000 (bottom)
 Mach =   0.000     Re =     0.050 e 6     Ncrit =   9.000

  alpha     CL        CD       CDp       Cm    Top Xtr Bot Xtr   Cpmin    Chinge    XCp    
 ------- -------- --------- --------- -------- ------- ------- -------- --------- ---------
 -15.000  -0.2946   0.20651   0.19870  -0.0254  1.0000  0.0669  -1.0148   0.0000   0.1420
 -14.500  -0.2746   0.19589   0.18808  -0.0249  1.0000  0.0688  -0.9535   0.0000   0.1363
 -14.000  -0.2607   0.18979   0.18205  -0.0250  1.0000  0.0709  -0.9238   0.0000   0.1307
 -13.500  -0.2485   0.18470   0.17705  -0.0253  1.0000  0.0731  -0.9060   0.0000   0.1248
 -13.000  -0.2374   0.18004   0.17248  -0.0255  1.0000  0.0756  -0.8954   0.0000   0.1189
 -12.500  -0.2273   0.17568   0.16822  -0.0257  1.0000  0.0783  -0.8904   0.0000   0.1131
 -12.000  -0.2184   0.17173   0.16438  -0.0259  1.0000  0.0812  -0.8918   0.0000   0.1078
 -11.500  -0.2121   0.16889   0.16166  -0.0262  1.0000  0.0841  -0.9059   0.0000   0.1033
 -11.000  -0.2128   0.16900   0.16192  -0.0268  1.0000  0.0862  -0.9460   0.0000   0.1027
 -10.500  -0.2207   0.17098   0.16408  -0.0269  1.0000  0.0872  -0.9997   0.0000   0.1086
 -10.000  -0.2312   0.17254   0.16583  -0.0266  1.0000  0.0876  -1.0523   0.0000   0.1178
  -9.000  -0.1840   0.14819   0.14167  -0.0228  1.0000  0.0934  -0.9168   0.0000   0.1061
  -8.500  -0.1781   0.14399   0.13763  -0.0208  1.0000  0.0972  -0.8941   0.0000   0.1135
  -8.000  -0.1772   0.14085   0.13468  -0.0189  1.0000  0.1013  -0.8889   0.0000   0.1248
  -7.500  -0.1813   0.13867   0.13271  -0.0169  1.0000  0.1056  -0.8979   0.0000   0.1400
  -7.000  -0.1955   0.13878   0.13306  -0.0148  1.0000  0.1094  -0.9313   0.0000   0.1602
  -6.500  -0.2254   0.14204   0.13663  -0.0118  1.0000  0.1112  -0.9909   0.0000   0.1863
  -6.000  -0.2641   0.14581   0.14074  -0.0076  1.0000  0.1119  -1.0484   0.0000   0.2120
  -5.500  -0.1861   0.13106   0.12602  -0.0196  0.9817  0.1174  -0.9547   0.0000   0.1311
  -5.000  -0.1164   0.12256   0.11749  -0.0316  0.9492  0.1299  -0.8702   0.0000  -0.0434
  -4.500  -0.0880   0.12633   0.12128  -0.0509  0.9055  0.1397  -0.9605   0.0000  -0.3572
  -4.000  -0.0295   0.11039   0.10532  -0.0501  0.8795  0.1483  -0.8362   0.0000  -1.5253
  -3.500   0.0098   0.10549   0.10042  -0.0566  0.8426  0.1640  -0.8054   0.0000   6.2397
  -3.000   0.0493   0.09996   0.09493  -0.0670  0.8117  0.1742  -0.8148   0.0000   1.6489
  -2.500   0.0858   0.09356   0.08853  -0.0660  0.7856  0.1896  -0.7429   0.0000   1.0384
  -2.000   0.1294   0.08998   0.08495  -0.0791  0.7584  0.2070  -0.7563   0.0000   0.8723
  -1.500   0.2365   0.08122   0.07602  -0.0976  0.7442  0.2411  -0.8180   0.0000   0.6673
  -1.000   0.2277   0.07794   0.07285  -0.0876  0.7181  0.2481  -0.8156   0.0000   0.6382
  -0.500   0.3854   0.06636   0.06093  -0.1116  0.7095  0.3233  -0.9255   0.0000   0.5402
   2.000   1.2182   0.04127   0.03263  -0.2421  0.6217  0.6570  -1.4774   0.0000   0.4443
   2.500   1.2633   0.04369   0.03503  -0.2416  0.6100  0.7229  -1.5161   0.0000   0.4360
   3.000   1.3154   0.04547   0.03686  -0.2413  0.6013  0.8403  -1.5713   0.0000   0.4275
   3.500   1.0322   0.07858   0.07106  -0.2190  0.5869  0.6737  -1.2297   0.0000   0.4564
   4.000   0.9972   0.09152   0.08418  -0.2194  0.5876  0.6897  -1.1611   0.0000   0.4638
   4.500   0.9996   0.10086   0.09370  -0.2206  0.5952  0.7407  -1.1402   0.0000   0.4639
   5.000   1.0252   0.10676   0.09985  -0.2208  0.5999  1.0000  -1.1543   0.0000   0.4579
   6.000   0.8924   0.13123   0.12509  -0.2225  0.6895  0.9102  -0.9362   0.0000   0.4911
   7.000   0.9916   0.14464   0.13747  -0.2320  0.6464  1.0000  -1.0236   0.0000   0.4740
   7.500   1.0862   0.15913   0.15159  -0.2387  0.6384  1.0000  -1.1233   0.0000   0.4588


