XFLR5 v6.09.05 beta

 Calculated polar for: S1223

 1 1 Reynolds number fixed          Mach number fixed         

 xtrf =   1.000 (top)        1.000 (bottom)
 Mach =   0.000     Re =     0.075 e 6     Ncrit =   9.000

  alpha     CL        CD       CDp       Cm    Top Xtr Bot Xtr   Cpmin    Chinge    XCp    
 ------- -------- --------- --------- -------- ------- ------- -------- --------- ---------
 -14.500  -0.3011   0.21095   0.20461  -0.0262  1.0000  0.0462  -1.1358   0.0000   0.1431
 -13.500  -0.2641   0.18840   0.18217  -0.0262  1.0000  0.0473  -1.0742   0.0000   0.1291
 -13.000  -0.2460   0.17924   0.17307  -0.0254  1.0000  0.0486  -1.0080   0.0000   0.1243
 -12.500  -0.2334   0.17351   0.16742  -0.0249  1.0000  0.0498  -0.9729   0.0000   0.1202
 -12.000  -0.2227   0.16867   0.16267  -0.0246  1.0000  0.0512  -0.9504   0.0000   0.1165
 -11.500  -0.2133   0.16423   0.15833  -0.0243  1.0000  0.0527  -0.9357   0.0000   0.1133
 -11.000  -0.2049   0.16003   0.15422  -0.0239  1.0000  0.0543  -0.9266   0.0000   0.1110
 -10.500  -0.1977   0.15600   0.15030  -0.0233  1.0000  0.0561  -0.9221   0.0000   0.1099
 -10.000  -0.1918   0.15219   0.14661  -0.0226  1.0000  0.0580  -0.9225   0.0000   0.1105
  -9.500  -0.1877   0.14876   0.14326  -0.0218  1.0000  0.0601  -0.9296   0.0000   0.1131
  -9.000  -0.1867   0.14618   0.14083  -0.0209  1.0000  0.0623  -0.9495   0.0000   0.1183
  -8.500  -0.1930   0.14572   0.14053  -0.0201  1.0000  0.0639  -0.9945   0.0000   0.1282
  -8.000  -0.2072   0.14672   0.14172  -0.0189  1.0000  0.0647  -1.0520   0.0000   0.1440
  -7.500  -0.2253   0.14756   0.14277  -0.0169  1.0000  0.0651  -1.1068   0.0000   0.1625
  -7.000  -0.2447   0.14787   0.14331  -0.0141  1.0000  0.0653  -1.1518   0.0000   0.1815
  -6.500  -0.1720   0.13063   0.12608  -0.0228  0.9891  0.0682  -1.0339   0.0000   0.1011
  -6.000  -0.1036   0.12106   0.11650  -0.0334  0.9712  0.0740  -0.9160   0.0000  -0.0996
  -5.500  -0.0512   0.11415   0.10959  -0.0444  0.9460  0.0808  -0.8837   0.0000  -0.6706
  -5.000  -0.0246   0.11315   0.10863  -0.0569  0.9097  0.0867  -0.9616   0.0000  -2.1604
  -4.500   0.0279   0.10279   0.09827  -0.0677  0.8847  0.0897  -0.9588   0.0000   2.7619
  -4.000   0.0861   0.09256   0.08804  -0.0689  0.8610  0.0981  -0.8111   0.0000   1.0742
  -3.500   0.1318   0.08852   0.08399  -0.0822  0.8184  0.1111  -0.8410   0.0000   0.8876
  -3.000   0.2013   0.07662   0.07205  -0.0889  0.8049  0.1197  -0.8314   0.0000   0.6993
  -2.500   0.3042   0.06828   0.06352  -0.1139  0.7749  0.1427  -0.8886   0.0000   0.6282
  -1.500   0.6419   0.04097   0.03495  -0.1856  0.7036  0.1165  -1.0848   0.0000   0.5397
  -1.000   0.7257   0.03951   0.03322  -0.1913  0.6680  0.1802  -1.1537   0.0000   0.5133
  -0.500   1.0858   0.02451   0.01511  -0.2653  0.6279  0.1208  -1.3640   0.0000   0.4932
   0.000   1.1348   0.02651   0.01793  -0.2616  0.6075  0.4170  -1.4146   0.0000   0.4787
   0.500   1.1877   0.02761   0.01888  -0.2604  0.5905  0.4766  -1.4692   0.0000   0.4667
   1.000   1.2572   0.02826   0.01918  -0.2634  0.5735  0.5153  -1.5367   0.0000   0.4561
   1.500   1.3275   0.02961   0.02024  -0.2669  0.5610  0.5535  -1.6027   0.0000   0.4468
   2.000   1.3779   0.03082   0.02157  -0.2663  0.5501  0.6025  -1.6521   0.0000   0.4382
   2.500   1.4296   0.03206   0.02293  -0.2656  0.5401  0.6779  -1.7041   0.0000   0.4299
   3.000   1.4742   0.03313   0.02413  -0.2631  0.5310  0.8223  -1.7597   0.0000   0.4218
   3.500   1.5197   0.03535   0.02630  -0.2627  0.5218  1.0000  -1.8110   0.0000   0.4154
   4.000   1.5581   0.03801   0.02902  -0.2606  0.5136  1.0000  -1.8571   0.0000   0.4090
   4.500   1.5955   0.04082   0.03187  -0.2582  0.5057  1.0000  -1.9103   0.0000   0.4028
   5.000   1.6358   0.04363   0.03480  -0.2562  0.4984  1.0000  -1.9685   0.0000   0.3968
   5.500   1.6819   0.04764   0.03868  -0.2555  0.4900  1.0000  -2.0412   0.0000   0.3912
   6.000   1.6580   0.05313   0.04473  -0.2445  0.4828  1.0000  -2.0359   0.0000   0.3860
   7.500   1.4808   0.08687   0.07950  -0.2137  0.4554  1.0000  -1.8631   0.0000   0.3807
   9.000   1.1417   0.16028   0.15398  -0.2300  0.4764  1.0000  -1.2266   0.0000   0.4373


