XFLR5 v6.09.05 beta

 Calculated polar for: S1223

 1 1 Reynolds number fixed          Mach number fixed         

 xtrf =   1.000 (top)        1.000 (bottom)
 Mach =   0.000     Re =     0.300 e 6     Ncrit =   9.000

  alpha     CL        CD       CDp       Cm    Top Xtr Bot Xtr   Cpmin    Chinge    XCp    
 ------- -------- --------- --------- -------- ------- ------- -------- --------- ---------
 -12.500  -0.2548   0.17553   0.17248  -0.0199  1.0000  0.0171  -1.2039   0.0000   0.1515
 -12.000  -0.2469   0.17114   0.16814  -0.0198  1.0000  0.0171  -1.2107   0.0000   0.1497
 -11.500  -0.2398   0.16686   0.16392  -0.0196  1.0000  0.0171  -1.2182   0.0000   0.1488
 -11.000  -0.2085   0.16023   0.15728  -0.0262  0.9966  0.0171  -1.2147   0.0000   0.1020
 -10.500  -0.1645   0.15229   0.14931  -0.0361  0.9905  0.0171  -1.2056   0.0000   0.0013
 -10.000  -0.1303   0.14529   0.14232  -0.0432  0.9853  0.0171  -1.2018   0.0000  -0.1175
  -9.500  -0.0945   0.13832   0.13532  -0.0505  0.9811  0.0172  -1.1982   0.0000  -0.3341
  -7.500   0.0328   0.10646   0.10353  -0.0716  0.9535  0.0188  -1.1827   0.0000   2.5566
  -7.000   0.0727   0.09989   0.09698  -0.0778  0.9461  0.0195  -1.1071   0.0000   1.3756
  -6.500   0.0998   0.09434   0.09146  -0.0809  0.9327  0.0202  -1.0621   0.0000   1.0974
  -6.000   0.1290   0.08870   0.08583  -0.0845  0.9185  0.0210  -1.0268   0.0000   0.9316
  -5.500   0.1566   0.08319   0.08035  -0.0877  0.9009  0.0219  -1.0022   0.0000   0.8298
  -5.000   0.1722   0.07856   0.07573  -0.0878  0.8719  0.0229  -0.9945   0.0000   0.7754
  -4.000   0.3401   0.06100   0.05757  -0.1252  0.7573  0.0286  -0.9865   0.0000   0.6250
  -3.500   0.3867   0.05685   0.05274  -0.1337  0.6470  0.0298  -1.0027   0.0000   0.6007
  -3.000   0.4186   0.05227   0.04783  -0.1384  0.5907  0.0300  -1.0268   0.0000   0.5842
  -2.000   0.5333   0.03883   0.03390  -0.1602  0.5269  0.0360  -1.0471   0.0000   0.5514
  -0.500   1.0805   0.01649   0.00829  -0.2604  0.4583  0.0442  -1.4118   0.0000   0.4893
   0.000   1.1597   0.01627   0.00787  -0.2650  0.4473  0.0454  -1.4845   0.0000   0.4760
   0.500   1.2378   0.01619   0.00815  -0.2696  0.4375  0.2872  -1.5602   0.0000   0.4645
   1.000   1.2927   0.01675   0.00869  -0.2691  0.4285  0.3358  -1.6258   0.0000   0.4540
   1.500   1.3614   0.01759   0.00933  -0.2717  0.4172  0.3586  -1.6998   0.0000   0.4446
   2.000   1.4187   0.01781   0.00970  -0.2718  0.4134  0.3938  -1.7677   0.0000   0.4358
   2.500   1.4749   0.01815   0.01013  -0.2716  0.4076  0.4417  -1.8354   0.0000   0.4275
   3.000   1.5333   0.01860   0.01072  -0.2721  0.4018  0.5174  -1.9049   0.0000   0.4199
   3.500   1.5915   0.01909   0.01140  -0.2724  0.3962  0.6400  -1.9747   0.0000   0.4128
   4.500   1.6978   0.02056   0.01314  -0.2712  0.3827  1.0000  -2.1133   0.0000   0.3996
   5.000   1.7489   0.02118   0.01380  -0.2702  0.3798  1.0000  -2.1882   0.0000   0.3935
   5.500   1.7964   0.02175   0.01442  -0.2684  0.3760  1.0000  -2.2658   0.0000   0.3875
   6.000   1.8446   0.02244   0.01517  -0.2669  0.3715  1.0000  -2.3553   0.0000   0.3819
   6.500   1.8896   0.02309   0.01585  -0.2648  0.3660  1.0000  -2.4491   0.0000   0.3763
   7.000   1.9326   0.02379   0.01656  -0.2622  0.3606  1.0000  -2.5442   0.0000   0.3709
   7.500   1.9782   0.02473   0.01759  -0.2604  0.3531  1.0000  -2.6600   0.0000   0.3659
   8.000   2.0306   0.02609   0.01904  -0.2602  0.3465  1.0000  -2.8248   0.0000   0.3614
   8.500   2.0610   0.02673   0.01987  -0.2552  0.3427  1.0000  -2.9722   0.0000   0.3561
   9.000   2.0894   0.02740   0.02069  -0.2499  0.3366  1.0000  -3.1192   0.0000   0.3509
   9.500   2.1185   0.02815   0.02154  -0.2449  0.3299  1.0000  -3.2703   0.0000   0.3458
  10.000   2.1453   0.02906   0.02252  -0.2397  0.3209  1.0000  -3.4204   0.0000   0.3408
  10.500   2.1737   0.03033   0.02393  -0.2350  0.3123  1.0000  -3.5738   0.0000   0.3362
  11.000   2.1938   0.03146   0.02532  -0.2289  0.3063  1.0000  -3.7141   0.0000   0.3313
  11.500   2.2147   0.03276   0.02681  -0.2232  0.2987  1.0000  -3.8703   0.0000   0.3266
  12.000   2.2326   0.03438   0.02851  -0.2174  0.2901  1.0000  -4.0294   0.0000   0.3220
  12.500   2.2496   0.03644   0.03074  -0.2119  0.2811  1.0000  -4.1871   0.0000   0.3176
  13.000   2.2639   0.03852   0.03316  -0.2063  0.2717  1.0000  -4.3404   0.0000   0.3134
  13.500   2.2670   0.04150   0.03619  -0.1999  0.2579  1.0000  -4.4701   0.0000   0.3092
  14.000   2.2669   0.04532   0.04018  -0.1941  0.2392  1.0000  -4.5914   0.0000   0.3054
  14.500   2.2512   0.05105   0.04594  -0.1881  0.2163  1.0000  -4.6739   0.0000   0.3020
  15.000   2.2220   0.05930   0.05422  -0.1832  0.1936  1.0000  -4.7174   0.0000   0.2995
  15.500   2.1812   0.07024   0.06525  -0.1803  0.1745  1.0000  -4.7231   0.0000   0.2983
  16.000   2.1434   0.08187   0.07707  -0.1798  0.1586  1.0000  -4.7269   0.0000   0.2980
  16.500   2.0918   0.09612   0.09151  -0.1814  0.1466  1.0000  -4.6814   0.0000   0.2994
  17.000   2.0492   0.10913   0.10472  -0.1840  0.1348  1.0000  -4.6519   0.0000   0.3010


