XFLR5 v6.09.05 beta

 Calculated polar for: S1223

 1 1 Reynolds number fixed          Mach number fixed         

 xtrf =   1.000 (top)        1.000 (bottom)
 Mach =   0.000     Re =     0.210 e 6     Ncrit =   9.000

  alpha     CL        CD       CDp       Cm    Top Xtr Bot Xtr   Cpmin    Chinge    XCp    
 ------- -------- --------- --------- -------- ------- ------- -------- --------- ---------
 -14.000  -0.2756   0.18256   0.17877  -0.0191  1.0000  0.0193  -1.1307   0.0000   0.1588
 -13.500  -0.2649   0.17791   0.17417  -0.0194  1.0000  0.0196  -1.1183   0.0000   0.1548
 -13.000  -0.2547   0.17335   0.16966  -0.0196  1.0000  0.0198  -1.1070   0.0000   0.1512
 -12.500  -0.2452   0.16890   0.16526  -0.0196  1.0000  0.0201  -1.0967   0.0000   0.1482
 -12.000  -0.2363   0.16456   0.16097  -0.0195  1.0000  0.0204  -1.0877   0.0000   0.1460
 -11.500  -0.2282   0.16034   0.15682  -0.0192  1.0000  0.0207  -1.0801   0.0000   0.1446
 -11.000  -0.2209   0.15626   0.15281  -0.0187  1.0000  0.0211  -1.0739   0.0000   0.1445
 -10.500  -0.2147   0.15230   0.14891  -0.0181  1.0000  0.0214  -1.0695   0.0000   0.1457
 -10.000  -0.2096   0.14847   0.14516  -0.0172  1.0000  0.0219  -1.0672   0.0000   0.1486
  -9.500  -0.1681   0.14155   0.13820  -0.0261  0.9946  0.0226  -1.0435   0.0000   0.0698
  -9.000  -0.1265   0.13455   0.13119  -0.0350  0.9884  0.0235  -1.0227   0.0000  -0.0594
  -8.500  -0.0885   0.12775   0.12439  -0.0427  0.9812  0.0245  -1.0072   0.0000  -0.2789
  -8.000  -0.0523   0.12112   0.11777  -0.0498  0.9727  0.0256  -0.9975   0.0000  -0.7790
  -7.500  -0.0166   0.11465   0.11132  -0.0567  0.9627  0.0269  -0.9973   0.0000  -3.4059
  -7.000   0.0185   0.10893   0.10561  -0.0642  0.9512  0.0284  -1.0243   0.0000   3.9130
  -6.500   0.0492   0.10447   0.10118  -0.0720  0.9374  0.0294  -1.0759   0.0000   1.7834
  -6.000   0.0917   0.09833   0.09504  -0.0807  0.9268  0.0298  -1.0839   0.0000   1.1654
  -5.500   0.1162   0.09287   0.08959  -0.0839  0.9076  0.0299  -1.0946   0.0000   0.9971
  -4.500   0.1631   0.07707   0.07386  -0.0895  0.8607  0.0315  -1.1569   0.0000   0.8132
  -4.000   0.2057   0.07063   0.06739  -0.0919  0.8232  0.0336  -1.0051   0.0000   0.7063
  -3.500   0.3215   0.06051   0.05685  -0.1151  0.7584  0.0387  -0.9155   0.0000   0.6138
  -3.000   0.4323   0.05337   0.04894  -0.1431  0.6575  0.0459  -0.9742   0.0000   0.5845
  -2.500   0.4799   0.04531   0.04047  -0.1532  0.6048  0.0489  -1.0051   0.0000   0.5715
  -2.000   0.5285   0.04198   0.03685  -0.1569  0.5683  0.0542  -1.0448   0.0000   0.5479
  -1.500   0.9318   0.01893   0.01090  -0.2531  0.5253  0.0384  -1.2684   0.0000   0.5217
  -1.000   1.0124   0.01822   0.00984  -0.2585  0.5064  0.0509  -1.3397   0.0000   0.5045
  -0.500   1.0996   0.01798   0.00923  -0.2648  0.4881  0.0531  -1.4152   0.0000   0.4892
   0.000   1.1730   0.01784   0.00888  -0.2680  0.4753  0.0641  -1.4832   0.0000   0.4761
   0.500   1.2409   0.01831   0.00979  -0.2704  0.4634  0.3308  -1.5536   0.0000   0.4647
   1.000   1.3060   0.01920   0.01054  -0.2722  0.4522  0.3707  -1.6239   0.0000   0.4544
   1.500   1.3637   0.01956   0.01093  -0.2723  0.4461  0.3974  -1.6898   0.0000   0.4449
   2.000   1.4238   0.01997   0.01144  -0.2731  0.4388  0.4348  -1.7579   0.0000   0.4361
   2.500   1.4820   0.02047   0.01196  -0.2734  0.4310  0.4905  -1.8261   0.0000   0.4280
   3.000   1.5439   0.02122   0.01279  -0.2746  0.4231  0.5876  -1.8969   0.0000   0.4205
   3.500   1.6038   0.02221   0.01408  -0.2754  0.4162  0.7595  -1.9636   0.0000   0.4135
   4.000   1.6414   0.02246   0.01453  -0.2713  0.4126  1.0000  -2.0217   0.0000   0.4062
   4.500   1.6942   0.02329   0.01544  -0.2707  0.4078  1.0000  -2.0924   0.0000   0.3999
   5.000   1.7456   0.02415   0.01631  -0.2699  0.4024  1.0000  -2.1693   0.0000   0.3938
   5.500   1.7955   0.02494   0.01706  -0.2687  0.3961  1.0000  -2.2499   0.0000   0.3879
   6.000   1.8467   0.02591   0.01800  -0.2679  0.3908  1.0000  -2.3439   0.0000   0.3824
   6.500   1.9024   0.02811   0.02017  -0.2686  0.3819  1.0000  -2.4446   0.0000   0.3776
   7.000   1.9448   0.02878   0.02100  -0.2660  0.3785  1.0000  -2.5404   0.0000   0.3722
   7.500   1.9838   0.02956   0.02212  -0.2627  0.3728  1.0000  -2.6489   0.0000   0.3669
   8.000   2.0228   0.03037   0.02306  -0.2596  0.3660  1.0000  -2.7940   0.0000   0.3618
   8.500   2.0637   0.03118   0.02394  -0.2568  0.3597  1.0000  -2.9587   0.0000   0.3569
   9.000   2.1080   0.03227   0.02500  -0.2549  0.3522  1.0000  -3.1327   0.0000   0.3523
   9.500   2.1409   0.03390   0.02684  -0.2511  0.3448  1.0000  -3.2880   0.0000   0.3476
  10.000   2.1553   0.03480   0.02813  -0.2433  0.3383  1.0000  -3.4136   0.0000   0.3422
  10.500   2.1720   0.03547   0.02895  -0.2361  0.3299  1.0000  -3.5470   0.0000   0.3369
  11.000   2.1951   0.03606   0.02951  -0.2303  0.3206  1.0000  -3.6959   0.0000   0.3320
  11.500   2.2133   0.03782   0.03147  -0.2242  0.3119  1.0000  -3.8420   0.0000   0.3273
  12.000   2.2166   0.03963   0.03364  -0.2159  0.3046  1.0000  -3.9677   0.0000   0.3222
  12.500   2.2253   0.04140   0.03562  -0.2089  0.2958  1.0000  -4.1073   0.0000   0.3175
  13.000   2.2393   0.04324   0.03746  -0.2031  0.2858  1.0000  -4.2604   0.0000   0.3132
  13.500   2.2350   0.04650   0.04118  -0.1958  0.2771  1.0000  -4.3693   0.0000   0.3088
  14.000   2.2289   0.05005   0.04503  -0.1892  0.2656  1.0000  -4.4744   0.0000   0.3049
  14.500   2.2236   0.05428   0.04928  -0.1838  0.2526  1.0000  -4.5805   0.0000   0.3013
  15.000   2.2074   0.06058   0.05595  -0.1794  0.2384  1.0000  -4.6538   0.0000   0.2985
  15.500   2.1833   0.06847   0.06391  -0.1761  0.2226  1.0000  -4.7042   0.0000   0.2964
  16.000   2.1481   0.07892   0.07458  -0.1748  0.2057  1.0000  -4.7163   0.0000   0.2957


