XFLR5 v6.09.05 beta

 Calculated polar for: S1223

 1 1 Reynolds number fixed          Mach number fixed         

 xtrf =   1.000 (top)        1.000 (bottom)
 Mach =   0.000     Re =     0.205 e 6     Ncrit =   9.000

  alpha     CL        CD       CDp       Cm    Top Xtr Bot Xtr   Cpmin    Chinge    XCp    
 ------- -------- --------- --------- -------- ------- ------- -------- --------- ---------
 -14.500  -0.2859   0.18734   0.18346  -0.0184  1.0000  0.0196  -1.1122   0.0000   0.1634
 -14.000  -0.2748   0.18264   0.17881  -0.0190  1.0000  0.0198  -1.1022   0.0000   0.1590
 -13.500  -0.2642   0.17802   0.17423  -0.0193  1.0000  0.0201  -1.0927   0.0000   0.1548
 -13.000  -0.2540   0.17347   0.16974  -0.0196  1.0000  0.0203  -1.0840   0.0000   0.1511
 -12.500  -0.2445   0.16903   0.16534  -0.0196  1.0000  0.0206  -1.0762   0.0000   0.1480
 -12.000  -0.2356   0.16468   0.16106  -0.0195  1.0000  0.0209  -1.0694   0.0000   0.1456
 -11.500  -0.2275   0.16046   0.15690  -0.0193  1.0000  0.0213  -1.0638   0.0000   0.1441
 -11.000  -0.2203   0.15638   0.15288  -0.0188  1.0000  0.0216  -1.0595   0.0000   0.1439
 -10.500  -0.2140   0.15241   0.14898  -0.0181  1.0000  0.0220  -1.0568   0.0000   0.1450
 -10.000  -0.2089   0.14858   0.14522  -0.0173  1.0000  0.0225  -1.0561   0.0000   0.1478
  -9.500  -0.1745   0.14224   0.13887  -0.0244  0.9955  0.0232  -1.0391   0.0000   0.0871
  -9.000  -0.1321   0.13517   0.13179  -0.0335  0.9890  0.0241  -1.0202   0.0000  -0.0345
  -8.500  -0.0937   0.12837   0.12499  -0.0414  0.9818  0.0252  -1.0073   0.0000  -0.2347
  -7.500  -0.0209   0.11552   0.11215  -0.0561  0.9631  0.0278  -1.0125   0.0000  -2.6188
  -7.000   0.0128   0.11058   0.10723  -0.0642  0.9509  0.0291  -1.0572   0.0000   5.5590
  -6.500   0.0444   0.10570   0.10238  -0.0716  0.9373  0.0296  -1.0908   0.0000   1.9418
  -6.000   0.0874   0.09917   0.09585  -0.0801  0.9268  0.0299  -1.0926   0.0000   1.2033
  -5.500   0.1121   0.09357   0.09026  -0.0833  0.9077  0.0300  -1.1033   0.0000   1.0195
  -5.000   0.1411   0.08728   0.08400  -0.0873  0.8858  0.0301  -1.1131   0.0000   0.8871
  -4.500   0.1587   0.07772   0.07450  -0.0866  0.8617  0.0322  -1.0944   0.0000   0.8102
  -4.000   0.2029   0.07127   0.06801  -0.0904  0.8257  0.0344  -0.9721   0.0000   0.7053
  -3.500   0.3129   0.06121   0.05758  -0.1130  0.7644  0.0397  -0.9107   0.0000   0.6169
  -3.000   0.4365   0.05342   0.04899  -0.1448  0.6627  0.0461  -0.9751   0.0000   0.5851
  -2.500   0.4710   0.04623   0.04144  -0.1497  0.6092  0.0496  -1.0023   0.0000   0.5702
  -2.000   0.5261   0.04241   0.03729  -0.1559  0.5719  0.0558  -1.0438   0.0000   0.5473
  -1.500   0.9325   0.01914   0.01105  -0.2532  0.5270  0.0392  -1.2685   0.0000   0.5217
  -1.000   1.0133   0.01834   0.00996  -0.2587  0.5088  0.0524  -1.3398   0.0000   0.5046
  -0.500   1.1014   0.01814   0.00933  -0.2652  0.4895  0.0541  -1.4157   0.0000   0.4892
   0.000   1.1739   0.01799   0.00898  -0.2682  0.4774  0.0655  -1.4829   0.0000   0.4761
   0.500   1.2405   0.01845   0.00994  -0.2704  0.4656  0.3347  -1.5526   0.0000   0.4647
   1.000   1.3076   0.01943   0.01071  -0.2726  0.4532  0.3738  -1.6242   0.0000   0.4544
   1.500   1.3646   0.01978   0.01109  -0.2725  0.4477  0.3998  -1.6895   0.0000   0.4449
   2.000   1.4245   0.02019   0.01161  -0.2733  0.4407  0.4379  -1.7572   0.0000   0.4362
   2.500   1.4827   0.02067   0.01214  -0.2736  0.4328  0.4939  -1.8251   0.0000   0.4280
   3.000   1.5429   0.02132   0.01289  -0.2744  0.4253  0.5913  -1.8948   0.0000   0.4205
   3.500   1.6042   0.02251   0.01433  -0.2756  0.4170  0.7699  -1.9626   0.0000   0.4135
   4.000   1.6423   0.02276   0.01476  -0.2716  0.4139  1.0000  -2.0211   0.0000   0.4063
   4.500   1.6946   0.02358   0.01569  -0.2709  0.4094  1.0000  -2.0913   0.0000   0.3999
   5.000   1.7457   0.02446   0.01658  -0.2700  0.4040  1.0000  -2.1679   0.0000   0.3938
   5.500   1.7952   0.02527   0.01737  -0.2688  0.3977  1.0000  -2.2481   0.0000   0.3880
   6.000   1.8460   0.02622   0.01830  -0.2679  0.3923  1.0000  -2.3416   0.0000   0.3824
   6.500   1.8993   0.02771   0.01973  -0.2678  0.3849  1.0000  -2.4421   0.0000   0.3773
   7.000   1.9450   0.02923   0.02141  -0.2661  0.3795  1.0000  -2.5392   0.0000   0.3723
   7.500   1.9839   0.03000   0.02252  -0.2629  0.3742  1.0000  -2.6476   0.0000   0.3670
   8.000   2.0221   0.03084   0.02351  -0.2596  0.3674  1.0000  -2.7911   0.0000   0.3618
   8.500   2.0622   0.03168   0.02443  -0.2567  0.3609  1.0000  -2.9542   0.0000   0.3569
   9.000   2.1048   0.03256   0.02531  -0.2543  0.3539  1.0000  -3.1256   0.0000   0.3522
   9.500   2.1420   0.03442   0.02732  -0.2515  0.3456  1.0000  -3.2880   0.0000   0.3477
  10.000   2.1561   0.03531   0.02861  -0.2436  0.3394  1.0000  -3.4132   0.0000   0.3423
  10.500   2.1712   0.03606   0.02954  -0.2361  0.3311  1.0000  -3.5432   0.0000   0.3370
  11.000   2.1927   0.03654   0.03002  -0.2299  0.3221  1.0000  -3.6890   0.0000   0.3320
  11.500   2.2147   0.03823   0.03185  -0.2246  0.3127  1.0000  -3.8428   0.0000   0.3274
  12.000   2.2154   0.04009   0.03408  -0.2158  0.3056  1.0000  -3.9630   0.0000   0.3223
  12.500   2.2229   0.04192   0.03614  -0.2086  0.2968  1.0000  -4.0995   0.0000   0.3175
  13.000   2.2354   0.04370   0.03795  -0.2026  0.2873  1.0000  -4.2494   0.0000   0.3131
  13.500   2.2329   0.04691   0.04157  -0.1956  0.2781  1.0000  -4.3625   0.0000   0.3088
  14.000   2.2246   0.05061   0.04560  -0.1888  0.2668  1.0000  -4.4620   0.0000   0.3048
  14.500   2.2215   0.05457   0.04953  -0.1835  0.2536  1.0000  -4.5738   0.0000   0.3012
  15.000   2.2030   0.06109   0.05648  -0.1790  0.2401  1.0000  -4.6407   0.0000   0.2985
  15.500   2.1798   0.06880   0.06421  -0.1757  0.2241  1.0000  -4.6937   0.0000   0.2964


