XFLR5 v6.09.05 beta

 Calculated polar for: S1223

 1 1 Reynolds number fixed          Mach number fixed         

 xtrf =   1.000 (top)        1.000 (bottom)
 Mach =   0.000     Re =     0.250 e 6     Ncrit =   9.000

  alpha     CL        CD       CDp       Cm    Top Xtr Bot Xtr   Cpmin    Chinge    XCp    
 ------- -------- --------- --------- -------- ------- ------- -------- --------- ---------
 -10.000  -0.1696   0.14362   0.14047  -0.0305  0.9932  0.0187  -1.2205   0.0000   0.0437
  -9.000  -0.0947   0.12996   0.12680  -0.0445  0.9818  0.0198  -1.1099   0.0000  -0.2663
  -8.500  -0.0607   0.12349   0.12034  -0.0506  0.9742  0.0204  -1.0713   0.0000  -0.6541
  -8.000  -0.0260   0.11708   0.11395  -0.0568  0.9665  0.0211  -1.0388   0.0000  -2.0968
  -7.500   0.0151   0.11028   0.10715  -0.0647  0.9600  0.0220  -1.0077   0.0000   4.7977
  -7.000   0.0466   0.10412   0.10101  -0.0697  0.9485  0.0230  -0.9886   0.0000   1.8289
  -6.500   0.0785   0.09804   0.09495  -0.0748  0.9364  0.0242  -0.9749   0.0000   1.2482
  -6.000   0.1208   0.09127   0.08817  -0.0825  0.9272  0.0257  -0.9645   0.0000   0.9612
  -5.500   0.1455   0.08592   0.08286  -0.0857  0.9084  0.0272  -0.9793   0.0000   0.8600
  -5.000   0.1618   0.08177   0.07873  -0.0880  0.8845  0.0287  -1.0342   0.0000   0.8103
  -4.500   0.1848   0.07728   0.07424  -0.0910  0.8459  0.0296  -1.0653   0.0000   0.7548
  -4.000   0.2822   0.06706   0.06378  -0.1123  0.8036  0.0300  -1.0519   0.0000   0.6557
  -3.500   0.3725   0.05542   0.05153  -0.1319  0.7085  0.0328  -1.0164   0.0000   0.6093
  -3.000   0.4014   0.05219   0.04781  -0.1330  0.6253  0.0351  -0.9647   0.0000   0.5850
  -2.500   0.4426   0.04786   0.04318  -0.1390  0.5800  0.0387  -0.9949   0.0000   0.5663
  -2.000   0.7711   0.02260   0.01620  -0.2289  0.5364  0.0343  -1.2828   0.0000   0.5478
  -1.000   1.0097   0.01760   0.00938  -0.2576  0.4885  0.0424  -1.3411   0.0000   0.5043
  -0.500   1.0814   0.01722   0.00885  -0.2606  0.4753  0.0472  -1.4082   0.0000   0.4893
   0.000   1.1664   0.01709   0.00831  -0.2665  0.4595  0.0531  -1.4846   0.0000   0.4760
   0.500   1.2434   0.01737   0.00903  -0.2709  0.4491  0.3083  -1.5594   0.0000   0.4646
   1.000   1.2981   0.01785   0.00957  -0.2703  0.4414  0.3526  -1.6241   0.0000   0.4542
   1.500   1.3583   0.01821   0.00988  -0.2710  0.4336  0.3782  -1.6930   0.0000   0.4446
   2.000   1.4188   0.01879   0.01037  -0.2719  0.4256  0.4114  -1.7625   0.0000   0.4359
   2.500   1.4862   0.01965   0.01126  -0.2743  0.4162  0.4683  -1.8360   0.0000   0.4280
   3.000   1.5429   0.02004   0.01188  -0.2743  0.4121  0.5534  -1.9033   0.0000   0.4204
   3.500   1.5996   0.02049   0.01265  -0.2743  0.4069  0.6955  -1.9706   0.0000   0.4132
   4.000   1.6365   0.02064   0.01308  -0.2700  0.4020  1.0000  -2.0271   0.0000   0.4058
   4.500   1.6906   0.02139   0.01381  -0.2696  0.3967  1.0000  -2.1007   0.0000   0.3994
   5.000   1.7439   0.02222   0.01456  -0.2692  0.3913  1.0000  -2.1784   0.0000   0.3934
   5.500   1.8050   0.02385   0.01608  -0.2707  0.3826  1.0000  -2.2658   0.0000   0.3881
   6.000   1.8534   0.02463   0.01696  -0.2692  0.3796  1.0000  -2.3569   0.0000   0.3825
   6.500   1.8971   0.02527   0.01772  -0.2668  0.3751  1.0000  -2.4486   0.0000   0.3769
   7.000   1.9410   0.02605   0.01860  -0.2645  0.3696  1.0000  -2.5452   0.0000   0.3716
   7.500   1.9829   0.02671   0.01946  -0.2618  0.3632  1.0000  -2.6578   0.0000   0.3664
   8.000   2.0244   0.02746   0.02022  -0.2591  0.3568  1.0000  -2.8082   0.0000   0.3613
   8.500   2.0791   0.02952   0.02230  -0.2597  0.3477  1.0000  -2.9938   0.0000   0.3572
   9.000   2.1059   0.02999   0.02300  -0.2540  0.3438  1.0000  -3.1385   0.0000   0.3519
   9.500   2.1276   0.03075   0.02396  -0.2475  0.3377  1.0000  -3.2758   0.0000   0.3466
  10.000   2.1507   0.03148   0.02491  -0.2414  0.3301  1.0000  -3.4187   0.0000   0.3414
  10.500   2.1739   0.03223   0.02565  -0.2354  0.3210  1.0000  -3.5652   0.0000   0.3364
  11.000   2.1983   0.03372   0.02730  -0.2303  0.3123  1.0000  -3.7128   0.0000   0.3318
  11.500   2.2107   0.03513   0.02902  -0.2230  0.3058  1.0000  -3.8498   0.0000   0.3268
  12.000   2.2253   0.03665   0.03075  -0.2166  0.2975  1.0000  -4.0012   0.0000   0.3221
  12.500   2.2391   0.03845   0.03261  -0.2104  0.2884  1.0000  -4.1529   0.0000   0.3175
  13.000   2.2488   0.04089   0.03531  -0.2043  0.2795  1.0000  -4.2946   0.0000   0.3132
  13.500   2.2535   0.04361   0.03840  -0.1980  0.2689  1.0000  -4.4259   0.0000   0.3090
  14.000   2.2502   0.04720   0.04202  -0.1916  0.2560  1.0000  -4.5397   0.0000   0.3050
  14.500   2.2454   0.05176   0.04688  -0.1865  0.2411  1.0000  -4.6461   0.0000   0.3016
  15.000   2.2239   0.05867   0.05384  -0.1815  0.2226  1.0000  -4.7098   0.0000   0.2988
  15.500   2.1929   0.06787   0.06315  -0.1784  0.2027  1.0000  -4.7427   0.0000   0.2970
  16.000   2.1553   0.07898   0.07445  -0.1772  0.1851  1.0000  -4.7490   0.0000   0.2965
  16.500   2.1050   0.09260   0.08821  -0.1783  0.1703  1.0000  -4.7098   0.0000   0.2974


