XFLR5 v6.09.05 beta

 Calculated polar for: S1223

 1 1 Reynolds number fixed          Mach number fixed         

 xtrf =   1.000 (top)        1.000 (bottom)
 Mach =   0.000     Re =     0.225 e 6     Ncrit =   9.000

  alpha     CL        CD       CDp       Cm    Top Xtr Bot Xtr   Cpmin    Chinge    XCp    
 ------- -------- --------- --------- -------- ------- ------- -------- --------- ---------
 -12.500  -0.2482   0.16881   0.16529  -0.0200  1.0000  0.0188  -1.1907   0.0000   0.1478
 -12.000  -0.2390   0.16433   0.16086  -0.0198  1.0000  0.0190  -1.1697   0.0000   0.1461
 -11.500  -0.2307   0.16004   0.15664  -0.0193  1.0000  0.0193  -1.1518   0.0000   0.1452
 -11.000  -0.2234   0.15594   0.15260  -0.0188  1.0000  0.0196  -1.1367   0.0000   0.1455
 -10.500  -0.2170   0.15197   0.14869  -0.0180  1.0000  0.0199  -1.1246   0.0000   0.1470
 -10.000  -0.1955   0.14672   0.14348  -0.0215  0.9978  0.0204  -1.1029   0.0000   0.1186
  -9.500  -0.1521   0.13950   0.13623  -0.0307  0.9914  0.0211  -1.0682   0.0000   0.0200
  -9.000  -0.1145   0.13275   0.12948  -0.0383  0.9849  0.0218  -1.0417   0.0000  -0.1214
  -8.500  -0.0780   0.12611   0.12284  -0.0455  0.9779  0.0226  -1.0196   0.0000  -0.3864
  -7.500  -0.0040   0.11285   0.10960  -0.0596  0.9614  0.0247  -0.9868   0.0000  -15.5626
  -7.000   0.0300   0.10650   0.10327  -0.0657  0.9504  0.0260  -0.9812   0.0000   2.5659
  -6.500   0.0662   0.10034   0.09712  -0.0725  0.9393  0.0276  -0.9925   0.0000   1.3994
  -6.000   0.1035   0.09528   0.09208  -0.0817  0.9270  0.0291  -1.0479   0.0000   1.0714
  -5.500   0.1274   0.09065   0.08745  -0.0853  0.9076  0.0297  -1.0711   0.0000   0.9431
  -5.000   0.1513   0.08526   0.08210  -0.0880  0.8850  0.0299  -1.0828   0.0000   0.8491
  -4.500   0.1755   0.07953   0.07638  -0.0905  0.8508  0.0300  -1.0951   0.0000   0.7788
  -4.000   0.2219   0.06821   0.06499  -0.0998  0.8163  0.0316  -1.1450   0.0000   0.7092
  -3.500   0.3492   0.05831   0.05455  -0.1226  0.7399  0.0362  -0.9300   0.0000   0.6066
  -3.000   0.4036   0.05319   0.04880  -0.1325  0.6450  0.0406  -0.9670   0.0000   0.5821
  -2.500   0.4932   0.04706   0.04220  -0.1548  0.5919  0.0462  -1.0129   0.0000   0.5660
  -2.000   0.5457   0.03986   0.03475  -0.1633  0.5599  0.0513  -1.0511   0.0000   0.5503
  -1.500   0.7723   0.02664   0.02056  -0.2166  0.5254  0.0739  -1.1849   0.0000   0.5303
  -1.000   1.0004   0.01844   0.01017  -0.2555  0.4999  0.0457  -1.3338   0.0000   0.5046
  -0.500   1.0936   0.01757   0.00898  -0.2634  0.4833  0.0505  -1.4132   0.0000   0.4892
   0.000   1.1700   0.01747   0.00862  -0.2673  0.4694  0.0595  -1.4838   0.0000   0.4760
   0.500   1.2443   0.01815   0.00956  -0.2711  0.4555  0.3194  -1.5574   0.0000   0.4647
   1.000   1.3008   0.01869   0.01016  -0.2710  0.4485  0.3601  -1.6226   0.0000   0.4542
   1.500   1.3615   0.01898   0.01050  -0.2718  0.4411  0.3898  -1.6910   0.0000   0.4448
   2.000   1.4215   0.01941   0.01097  -0.2725  0.4337  0.4259  -1.7597   0.0000   0.4360
   2.500   1.4813   0.02001   0.01154  -0.2732  0.4255  0.4808  -1.8294   0.0000   0.4279
   3.000   1.5496   0.02110   0.01273  -0.2759  0.4167  0.5780  -1.9027   0.0000   0.4207
   3.500   1.6024   0.02147   0.01346  -0.2751  0.4130  0.7323  -1.9665   0.0000   0.4134
   4.000   1.6393   0.02168   0.01392  -0.2707  0.4086  1.0000  -2.0237   0.0000   0.4060
   4.500   1.6929   0.02248   0.01477  -0.2703  0.4033  1.0000  -2.0958   0.0000   0.3997
   5.000   1.7451   0.02330   0.01554  -0.2696  0.3979  1.0000  -2.1733   0.0000   0.3936
   5.500   1.7958   0.02410   0.01627  -0.2686  0.3918  1.0000  -2.2545   0.0000   0.3878
   6.000   1.8521   0.02551   0.01761  -0.2691  0.3852  1.0000  -2.3522   0.0000   0.3825
   6.500   1.9010   0.02684   0.01906  -0.2680  0.3797  1.0000  -2.4473   0.0000   0.3773
   7.000   1.9432   0.02761   0.01998  -0.2654  0.3752  1.0000  -2.5424   0.0000   0.3719
   7.500   1.9837   0.02837   0.02103  -0.2624  0.3689  1.0000  -2.6528   0.0000   0.3667
   8.000   2.0244   0.02909   0.02181  -0.2595  0.3622  1.0000  -2.8015   0.0000   0.3616
   8.500   2.0668   0.02996   0.02270  -0.2571  0.3561  1.0000  -2.9691   0.0000   0.3568
   9.000   2.1140   0.03195   0.02475  -0.2562  0.3471  1.0000  -3.1459   0.0000   0.3525
   9.500   2.1356   0.03256   0.02563  -0.2496  0.3421  1.0000  -3.2833   0.0000   0.3472
  10.000   2.1534   0.03342   0.02680  -0.2425  0.3351  1.0000  -3.4155   0.0000   0.3419
  10.500   2.1732   0.03396   0.02742  -0.2358  0.3265  1.0000  -3.5556   0.0000   0.3367
  11.000   2.2076   0.03531   0.02869  -0.2325  0.3148  1.0000  -3.7234   0.0000   0.3323
  11.500   2.2111   0.03669   0.03045  -0.2235  0.3097  1.0000  -3.8427   0.0000   0.3270
  12.000   2.2201   0.03837   0.03242  -0.2161  0.3017  1.0000  -3.9813   0.0000   0.3221
  12.500   2.2315   0.04006   0.03427  -0.2095  0.2930  1.0000  -4.1274   0.0000   0.3175
  13.000   2.2454   0.04223   0.03648  -0.2039  0.2827  1.0000  -4.2794   0.0000   0.3132
  13.500   2.2418   0.04533   0.04007  -0.1966  0.2740  1.0000  -4.3908   0.0000   0.3089
  14.000   2.2396   0.04865   0.04357  -0.1904  0.2620  1.0000  -4.5061   0.0000   0.3049
  14.500   2.2320   0.05329   0.04839  -0.1848  0.2492  1.0000  -4.6056   0.0000   0.3014
  15.000   2.2172   0.05940   0.05468  -0.1803  0.2333  1.0000  -4.6847   0.0000   0.2985
  15.500   2.1922   0.06762   0.06309  -0.1771  0.2163  1.0000  -4.7323   0.0000   0.2966
  16.000   2.1504   0.07888   0.07438  -0.1757  0.1983  1.0000  -4.7287   0.0000   0.2960


