XFLR5 v6.09.05 beta

 Calculated polar for: S1223

 1 1 Reynolds number fixed          Mach number fixed         

 xtrf =   1.000 (top)        1.000 (bottom)
 Mach =   0.000     Re =     0.065 e 6     Ncrit =   9.000

  alpha     CL        CD       CDp       Cm    Top Xtr Bot Xtr   Cpmin    Chinge    XCp    
 ------- -------- --------- --------- -------- ------- ------- -------- --------- ---------
 -14.000  -0.2604   0.18742   0.18061  -0.0236  1.0000  0.0554  -0.9183   0.0000   0.1361
 -13.500  -0.2494   0.18285   0.17612  -0.0241  1.0000  0.0569  -0.9141   0.0000   0.1299
 -13.000  -0.2390   0.17845   0.17180  -0.0246  1.0000  0.0586  -0.9132   0.0000   0.1238
 -12.500  -0.2295   0.17434   0.16778  -0.0250  1.0000  0.0605  -0.9169   0.0000   0.1179
 -12.000  -0.2216   0.17097   0.16451  -0.0254  1.0000  0.0623  -0.9303   0.0000   0.1125
 -11.500  -0.2178   0.16945   0.16310  -0.0260  1.0000  0.0639  -0.9625   0.0000   0.1086
 -11.000  -0.2194   0.16953   0.16332  -0.0264  1.0000  0.0647  -1.0081   0.0000   0.1090
 -10.500  -0.2242   0.16972   0.16365  -0.0265  1.0000  0.0651  -1.0551   0.0000   0.1132
 -10.000  -0.2302   0.16936   0.16345  -0.0261  1.0000  0.0654  -1.1000   0.0000   0.1195
  -9.500  -0.2339   0.16779   0.16204  -0.0254  1.0000  0.0656  -1.1350   0.0000   0.1257
  -9.000  -0.1907   0.14724   0.14152  -0.0223  1.0000  0.0688  -0.9814   0.0000   0.1138
  -8.500  -0.1834   0.14245   0.13687  -0.0201  1.0000  0.0713  -0.9426   0.0000   0.1216
  -8.000  -0.1816   0.13902   0.13361  -0.0180  1.0000  0.0740  -0.9271   0.0000   0.1331
  -7.500  -0.1840   0.13629   0.13106  -0.0158  1.0000  0.0767  -0.9244   0.0000   0.1480
  -7.000  -0.1913   0.13431   0.12930  -0.0133  1.0000  0.0795  -0.9323   0.0000   0.1661
  -6.500  -0.2064   0.13357   0.12881  -0.0103  1.0000  0.0820  -0.9524   0.0000   0.1875
  -6.000  -0.1693   0.13493   0.13020  -0.0282  0.9747  0.0869  -1.0328   0.0000   0.0679
  -5.500  -0.1255   0.12795   0.12328  -0.0417  0.9455  0.0888  -1.0658   0.0000  -0.1033
  -5.000  -0.0355   0.11150   0.10678  -0.0477  0.9280  0.0982  -0.8603   0.0000  -1.1658
  -4.500   0.0009   0.10636   0.10162  -0.0552  0.8911  0.1077  -0.8497   0.0000  66.5029
  -4.000   0.0424   0.10361   0.09890  -0.0745  0.8475  0.1136  -0.9464   0.0000   2.0579
  -3.500   0.1064   0.09030   0.08557  -0.0716  0.8345  0.1253  -0.7719   0.0000   0.9405
  -3.000   0.1695   0.08616   0.08138  -0.0940  0.7960  0.1414  -0.8319   0.0000   0.8140
  -2.500   0.2191   0.07555   0.07074  -0.0882  0.7787  0.1544  -0.8394   0.0000   0.6586
  -2.000   0.2985   0.06804   0.06311  -0.1038  0.7514  0.1771  -0.8880   0.0000   0.6010
  -1.500   0.4084   0.05968   0.05446  -0.1232  0.7254  0.2091  -0.9602   0.0000   0.5530
  -1.000   0.5824   0.05172   0.04597  -0.1560  0.6962  0.2792  -1.0694   0.0000   0.5179
  -0.500   1.0590   0.02648   0.01725  -0.2615  0.6564  0.1317  -1.3374   0.0000   0.4959
   0.000   1.1134   0.02845   0.01999  -0.2581  0.6354  0.4227  -1.3911   0.0000   0.4802
   0.500   1.1598   0.02972   0.02111  -0.2556  0.6166  0.4974  -1.4391   0.0000   0.4679
   1.000   1.2377   0.03060   0.02150  -0.2601  0.5995  0.5434  -1.5115   0.0000   0.4569
   1.500   1.2888   0.03169   0.02264  -0.2600  0.5848  0.5777  -1.5599   0.0000   0.4477
   2.000   1.3519   0.03292   0.02368  -0.2618  0.5728  0.6321  -1.6198   0.0000   0.4388
   2.500   1.4069   0.03485   0.02563  -0.2621  0.5631  0.7092  -1.6720   0.0000   0.4306
   3.000   1.4267   0.03657   0.02784  -0.2560  0.5544  0.8297  -1.7002   0.0000   0.4230
   3.500   1.4769   0.03888   0.02998  -0.2571  0.5427  1.0000  -1.7534   0.0000   0.4169
   4.000   1.5300   0.04148   0.03231  -0.2575  0.5337  1.0000  -1.8160   0.0000   0.4102
   4.500   1.5703   0.04569   0.03643  -0.2561  0.5264  1.0000  -1.8694   0.0000   0.4043
   5.000   1.5434   0.05225   0.04352  -0.2456  0.5196  1.0000  -1.8471   0.0000   0.3997
   7.000   1.2883   0.11253   0.10502  -0.2210  0.4900  1.0000  -1.5201   0.0000   0.4097


