XFLR5 v6.09.05 beta

 Calculated polar for: S1223

 1 1 Reynolds number fixed          Mach number fixed         

 xtrf =   1.000 (top)        1.000 (bottom)
 Mach =   0.000     Re =     0.135 e 6     Ncrit =   9.000

  alpha     CL        CD       CDp       Cm    Top Xtr Bot Xtr   Cpmin    Chinge    XCp    
 ------- -------- --------- --------- -------- ------- ------- -------- --------- ---------
 -14.500  -0.2887   0.19856   0.19381  -0.0226  1.0000  0.0297  -1.1336   0.0000   0.1503
 -14.000  -0.2797   0.19440   0.18968  -0.0234  1.0000  0.0298  -1.1445   0.0000   0.1452
 -13.500  -0.2714   0.19035   0.18568  -0.0240  1.0000  0.0298  -1.1570   0.0000   0.1406
 -13.000  -0.2639   0.18641   0.18180  -0.0245  1.0000  0.0299  -1.1711   0.0000   0.1367
 -12.500  -0.2564   0.18234   0.17780  -0.0248  1.0000  0.0299  -1.1826   0.0000   0.1333
 -12.000  -0.2490   0.17811   0.17364  -0.0248  1.0000  0.0299  -1.1910   0.0000   0.1307
 -11.500  -0.2422   0.17392   0.16952  -0.0246  1.0000  0.0300  -1.1998   0.0000   0.1290
 -11.000  -0.2364   0.16980   0.16548  -0.0243  1.0000  0.0300  -1.2105   0.0000   0.1285
 -10.000  -0.2163   0.15335   0.14922  -0.0222  1.0000  0.0310  -1.2086   0.0000   0.1285
  -9.500  -0.2045   0.14685   0.14281  -0.0201  1.0000  0.0318  -1.1362   0.0000   0.1328
  -9.000  -0.1989   0.14254   0.13857  -0.0182  1.0000  0.0326  -1.0959   0.0000   0.1401
  -8.500  -0.1965   0.13899   0.13513  -0.0163  1.0000  0.0333  -1.0712   0.0000   0.1497
  -8.000  -0.1500   0.13204   0.12818  -0.0257  0.9919  0.0349  -1.0159   0.0000   0.0556
  -7.500  -0.1020   0.12495   0.12109  -0.0357  0.9817  0.0369  -0.9754   0.0000  -0.1339
  -7.000  -0.0588   0.11808   0.11422  -0.0445  0.9695  0.0391  -0.9502   0.0000  -0.5640
  -6.500  -0.0186   0.11150   0.10766  -0.0526  0.9548  0.0416  -0.9408   0.0000  -2.7460
  -6.000   0.0163   0.10656   0.10274  -0.0613  0.9363  0.0445  -0.9786   0.0000   4.1900
  -5.000   0.0801   0.09729   0.09351  -0.0774  0.8893  0.0462  -1.0666   0.0000   1.2472
  -4.500   0.1092   0.08638   0.08268  -0.0794  0.8678  0.0481  -1.0483   0.0000   0.9975
  -4.000   0.1505   0.07914   0.07546  -0.0797  0.8428  0.0516  -0.9042   0.0000   0.7922
  -3.500   0.2072   0.07160   0.06787  -0.0881  0.8095  0.0575  -0.8479   0.0000   0.6830
  -3.000   0.3321   0.06036   0.05629  -0.1242  0.7566  0.0667  -0.9424   0.0000   0.6279
  -2.500   0.4194   0.05293   0.04831  -0.1320  0.6888  0.0760  -0.9780   0.0000   0.5673
  -2.000   0.5369   0.04499   0.03971  -0.1586  0.6346  0.0940  -1.0453   0.0000   0.5466
  -1.500   0.7496   0.03247   0.02625  -0.2097  0.5915  0.1164  -1.1669   0.0000   0.5298
  -1.000   1.0197   0.02087   0.01197  -0.2607  0.5565  0.0676  -1.3330   0.0000   0.5050
  -0.500   1.1037   0.02021   0.01098  -0.2662  0.5365  0.0721  -1.4040   0.0000   0.4898
   0.000   1.1875   0.02070   0.01169  -0.2717  0.5197  0.3173  -1.4759   0.0000   0.4766
   0.500   1.2338   0.02167   0.01287  -0.2691  0.5061  0.3952  -1.5330   0.0000   0.4651
   1.000   1.3020   0.02239   0.01328  -0.2716  0.4941  0.4238  -1.6041   0.0000   0.4548
   1.500   1.3655   0.02321   0.01402  -0.2732  0.4853  0.4540  -1.6702   0.0000   0.4454
   2.000   1.4244   0.02382   0.01476  -0.2738  0.4770  0.4970  -1.7339   0.0000   0.4368
   2.500   1.4826   0.02446   0.01552  -0.2742  0.4684  0.5658  -1.7985   0.0000   0.4286
   3.000   1.5387   0.02524   0.01638  -0.2741  0.4598  0.6816  -1.8631   0.0000   0.4209
   3.500   1.5777   0.02635   0.01777  -0.2705  0.4526  1.0000  -1.9158   0.0000   0.4135
   4.000   1.6307   0.02745   0.01886  -0.2702  0.4476  1.0000  -1.9826   0.0000   0.4068
   4.500   1.6802   0.02875   0.02030  -0.2692  0.4416  1.0000  -2.0501   0.0000   0.4005
   5.000   1.7290   0.03009   0.02168  -0.2680  0.4352  1.0000  -2.1227   0.0000   0.3944
   5.500   1.7787   0.03125   0.02278  -0.2669  0.4280  1.0000  -2.2047   0.0000   0.3886
   6.000   1.8305   0.03297   0.02444  -0.2665  0.4216  1.0000  -2.2981   0.0000   0.3832
   6.500   1.8714   0.03565   0.02729  -0.2644  0.4151  1.0000  -2.3796   0.0000   0.3780
   7.000   1.9064   0.03704   0.02894  -0.2607  0.4088  1.0000  -2.4635   0.0000   0.3725
   7.500   1.9405   0.03879   0.03110  -0.2570  0.4018  1.0000  -2.5596   0.0000   0.3673
   8.000   1.9793   0.04002   0.03244  -0.2540  0.3941  1.0000  -2.6840   0.0000   0.3622
   8.500   2.0292   0.04124   0.03360  -0.2531  0.3865  1.0000  -2.8621   0.0000   0.3576
   9.000   2.0528   0.04443   0.03707  -0.2483  0.3790  1.0000  -2.9921   0.0000   0.3528
   9.500   2.0624   0.04658   0.03961  -0.2406  0.3716  1.0000  -3.1001   0.0000   0.3475
  10.000   2.0722   0.04830   0.04159  -0.2329  0.3630  1.0000  -3.2127   0.0000   0.3422
  10.500   2.1210   0.04816   0.04153  -0.2313  0.3542  1.0000  -3.4039   0.0000   0.3377
  11.000   2.1361   0.05095   0.04450  -0.2253  0.3454  1.0000  -3.5284   0.0000   0.3330
  11.500   2.0938   0.05493   0.04897  -0.2107  0.3377  1.0000  -3.5416   0.0000   0.3272
  12.000   2.0824   0.05765   0.05196  -0.2016  0.3281  1.0000  -3.6171   0.0000   0.3222
  12.500   2.1794   0.05405   0.04799  -0.2057  0.3149  1.0000  -3.9516   0.0000   0.3185


